<?xml version="1.0" encoding="UTF-8"?>

<!-- generated on Sun 11 Jul 2021 01:38:28 PM by Eclipse SUMO netedit Version v1_8_0+1878-9c33583f10
<configuration xmlns:xsi="http://www.w3.org/2001/XMLSchema-instance" xsi:noNamespaceSchemaLocation="http://sumo.dlr.de/xsd/netconvertConfiguration.xsd">

    <input>
        <sumo-net-file value="net.net.xml"/>
    </input>

    <output>
        <output-file value="net.net.xml"/>
    </output>

    <processing>
        <geometry.min-radius.fix.railways value="false"/>
        <geometry.max-grade.fix value="false"/>
        <offset.disable-normalization value="true"/>
        <lefthand value="false"/>
    </processing>

    <junctions>
        <no-turnarounds value="true"/>
        <junctions.corner-detail value="5"/>
        <junctions.limit-turn-speed value="5.5"/>
        <rectangular-lane-cut value="false"/>
    </junctions>

    <pedestrian>
        <walkingareas value="false"/>
    </pedestrian>

    <netedit>
        <route-files value="/home/ilia/Programming/sow45_code/wolf/sumo_net/sumo_qew/qew.rou.xml"/>
    </netedit>

    <report>
        <aggregate-warnings value="5"/>
    </report>

</configuration>
-->

<routes xmlns:xsi="http://www.w3.org/2001/XMLSchema-instance" xsi:noNamespaceSchemaLocation="http://sumo.dlr.de/xsd/routes_file.xsd">
    <route edges="726921247#1 726921247#2 458575909 458575908 458575910 458575917" color="yellow" id="freeway"/>
    <route edges="458578450 458578452 28455502 726921247#2 458575909 458575908 458575910 458575917" color="yellow" id="merge"/>
</routes>
