<?xml version="1.0" encoding="UTF-8"?>

<!-- generated on Fri Sep 20 16:24:23 2019 by Eclipse SUMO jtrrouter Version UNKNOWN
<configuration xmlns:xsi="http://www.w3.org/2001/XMLSchema-instance" xsi:noNamespaceSchemaLocation="http://sumo.dlr.de/xsd/jtrrouterConfiguration.xsd">

    <input>
        <net-file value="./conf/luxiang_lize_modify.net.xml"/>
        <route-files value="/tmp/POCmw5wo6s5.flow.xml"/>
        <turn-ratio-files value="/tmp/POCkhy7ownm.turns.xml"/>
    </input>

    <output>
        <output-file value="/tmp/POC8zg3vcen.rou.xml"/>
    </output>

    <processing>
        <no-internal-links value="true"/>
        <accept-all-destinations value="true"/>
    </processing>

    <random_number>
        <random value="false"/>
        <seed value="27105"/>
    </random_number>

</configuration>
-->

<routes xmlns:xsi="http://www.w3.org/2001/XMLSchema-instance" xsi:noNamespaceSchemaLocation="http://sumo.dlr.de/xsd/routes_file.xsd">
    <vType id="CarB_1.00" length="5.00" minGap="1.50" maxSpeed="40.00" probability="0.35" accel="2.5" decel="2.0" sigma="0.5" tau="1.0"/>
    <vehicle id="1.0" type="CarB_1.00" depart="0.00" departLane="best" departPos="base" departSpeed="random">
        <route edges="center1_EAST_ENTRANCE center1_EAST_2 center1_EAST_3 center1_EAST_3.28 center1_east_c_in_edge_4 center6_NORTH_1 center6_NORTH_2 center6_NORTH_3"/>
    </vehicle>
    <vType id="CarA_1.65" length="5.00" minGap="1.50" maxSpeed="50.00" probability="0.03" accel="2.6" decel="2.0" sigma="0.5" tau="1.65"/>
    <vehicle id="3.0" type="CarA_1.65" depart="0.00" departLane="best" departPos="base" departSpeed="random">
        <route edges="center1_SOUTH_ENTRANCE center1_SOUTH_2 center1_SOUTH_3 center1_south_c_in_edge_4 center8_SOUTH_1 center8_SOUTH_2 center8_SOUTH_3 center8_SOUTH_6"/>
    </vehicle>
    <vType id="CarA_1.00" length="5.00" minGap="1.50" maxSpeed="50.00" probability="0.23" accel="2.6" decel="2.0" sigma="0.5" tau="1.0"/>
    <vehicle id="3.1" type="CarA_1.00" depart="1.00" departLane="best" departPos="base" departSpeed="random">
        <route edges="center1_SOUTH_ENTRANCE center1_SOUTH_2 center1_SOUTH_3 center1_south_c_in_edge_4 center8_SOUTH_1 center8_SOUTH_2 center8_SOUTH_3 center8_SOUTH_6"/>
    </vehicle>
    <vehicle id="2.0" type="CarB_1.00" depart="4.00" departLane="best" departPos="base" departSpeed="random">
        <route edges="center1_NORTH_ENTRANCE center1_NORTH_4 center1_NORTH_5 center1_north_c_in_edge_6 center6_NORTH_1 center6_NORTH_2 center6_NORTH_3"/>
    </vehicle>
    <!-- <vType id="CarD_1.00" length="12.00" minGap="2.50" maxSpeed="30.00" probability="0.06" accel="1.0" decel="1.3" sigma="0.5" tau="1.0"/> -->
    <vType id="CarD_1.00" length="5.00" minGap="2.50" maxSpeed="30.00" probability="0.06" accel="1.0" decel="1.3" sigma="0.5" tau="1.0"/>
    <vehicle id="3.2" type="CarD_1.00" depart="4.00" departLane="best" departPos="base" departSpeed="random">
        <route edges="center1_SOUTH_ENTRANCE center1_SOUTH_2 center1_SOUTH_3 center1_south_c_in_edge_4 center8_SOUTH_1 center8_SOUTH_2 center8_SOUTH_3 center8_SOUTH_6"/>
    </vehicle>
    <vType id="CarB_2.20" length="5.00" minGap="1.50" maxSpeed="40.00" probability="0.10" accel="2.5" decel="2.0" sigma="0.5" tau="2.2"/>
    <vehicle id="4.0" type="CarB_2.20" depart="4.00" departLane="best" departPos="base" departSpeed="random">
        <route edges="center1_WEST_demand center1_WEST_ENTRANCE center1_WEST_2 center1_WEST_3 center1_west_c_in_edge_4 center2_WEST_1 center2_WEST_2 center2_WEST_2.91 center2_WEST_3 center2_WEST_3.60"/>
    </vehicle>
    <vehicle id="2.1" type="CarA_1.00" depart="5.00" departLane="best" departPos="base" departSpeed="random">
        <route edges="center1_NORTH_ENTRANCE center1_NORTH_4 center1_NORTH_5 center1_north_c_in_edge_6 center6_NORTH_1 center6_NORTH_2 center6_NORTH_3"/>
    </vehicle>
    <vehicle id="3.3" type="CarB_2.20" depart="7.00" departLane="best" departPos="base" departSpeed="random">
        <route edges="center1_SOUTH_ENTRANCE center1_SOUTH_2 center1_SOUTH_3 gneE9 center2_WEST_2 center2_WEST_out"/>
    </vehicle>
    <!-- <vType id="CarD_1.65" length="12.00" minGap="2.50" maxSpeed="30.00" probability="0.01" accel="1.0" decel="1.3" sigma="0.5" tau="1.65"/> -->
    <vType id="CarD_1.65" length="5.00" minGap="2.50" maxSpeed="30.00" probability="0.01" accel="1.0" decel="1.3" sigma="0.5" tau="1.65"/>
    <vehicle id="1.1" type="CarD_1.65" depart="8.00" departLane="best" departPos="base" departSpeed="random">
        <route edges="center1_EAST_ENTRANCE center1_EAST_2 center1_EAST_3 center1_EAST_out"/>
    </vehicle>
    <vehicle id="4.1" type="CarB_1.00" depart="9.00" departLane="best" departPos="base" departSpeed="random">
        <route edges="center1_WEST_demand center1_WEST_ENTRANCE center1_WEST_2 center1_WEST_3 center1_west_c_in_edge_4 center8_SOUTH_1 center8_SOUTH_2 center8_SOUTH_3 center8_SOUTH_6"/>
    </vehicle>
    <!-- <vType id="CarC_1.00" length="7.50" minGap="2.00" maxSpeed="40.00" probability="0.05" accel="2.5" decel="2.0" sigma="0.5" tau="1.0"/> -->
    <vType id="CarC_1.00" length="5.00" minGap="2.00" maxSpeed="40.00" probability="0.05" accel="2.5" decel="2.0" sigma="0.5" tau="1.0"/>
    <vehicle id="2.2" type="CarC_1.00" depart="10.00" departLane="best" departPos="base" departSpeed="random">
        <route edges="center1_NORTH_ENTRANCE center1_NORTH_4 center1_NORTH_5 center1_north_c_in_edge_6 center6_NORTH_1 center6_NORTH_2 center6_NORTH_3"/>
    </vehicle>
    <vehicle id="2.3" type="CarB_1.00" depart="12.00" departLane="best" departPos="base" departSpeed="random">
        <route edges="center1_NORTH_ENTRANCE center1_NORTH_4 center1_NORTH_5 center1_north_c_in_edge_6 center2_WEST_1 center2_WEST_2 center2_WEST_out"/>
    </vehicle>
    <vehicle id="3.4" type="CarA_1.00" depart="12.00" departLane="best" departPos="base" departSpeed="random">
        <route edges="center1_SOUTH_ENTRANCE center1_SOUTH_2 center1_SOUTH_3 gneE9 center2_WEST_2 center2_WEST_out"/>
    </vehicle>
    <vehicle id="3.5" type="CarA_1.00" depart="13.00" departLane="best" departPos="base" departSpeed="random">
        <route edges="center1_SOUTH_ENTRANCE center1_SOUTH_2 center1_SOUTH_3 gneE9 center2_WEST_2 center2_WEST_out"/>
    </vehicle>
    <vType id="CarB_1.65" length="5.00" minGap="1.50" maxSpeed="40.00" probability="0.05" accel="2.5" decel="2.0" sigma="0.5" tau="1.65"/>
    <vehicle id="2.4" type="CarB_1.65" depart="17.00" departLane="best" departPos="base" departSpeed="random">
        <route edges="center1_NORTH_ENTRANCE center1_NORTH_4 center1_NORTH_5 gneE19 center3_EAST_2 center3_EAST_2.318 center3_EAST_3 center3_EAST_4"/>
    </vehicle>
    <!-- <vType id="CarC_2.20" length="7.50" minGap="2.00" maxSpeed="40.00" probability="0.02" accel="2.5" decel="2.0" sigma="0.5" tau="2.2"/> -->
    <vType id="CarC_2.20" length="5.00" minGap="2.00" maxSpeed="40.00" probability="0.02" accel="2.5" decel="2.0" sigma="0.5" tau="2.2"/>
    <vehicle id="1.2" type="CarC_2.20" depart="19.00" departLane="best" departPos="base" departSpeed="random">
        <route edges="center1_EAST_ENTRANCE center1_EAST_2 center1_EAST_3 center1_EAST_out"/>
    </vehicle>
    <vehicle id="1.3" type="CarB_1.00" depart="21.00" departLane="best" departPos="base" departSpeed="random">
        <route edges="center1_EAST_ENTRANCE center1_EAST_2 center1_EAST_3 center1_EAST_3.28 center1_east_c_in_edge_4 center6_NORTH_1 center6_NORTH_2 center6_NORTH_3"/>
    </vehicle>
    <vehicle id="4.2" type="CarB_1.00" depart="21.00" departLane="best" departPos="base" departSpeed="random">
        <route edges="center1_WEST_demand center1_WEST_ENTRANCE center1_WEST_2 center1_WEST_3 center1_west_c_in_edge_4 center2_WEST_1 center2_WEST_2 center2_WEST_2.91 center2_WEST_3 center2_WEST_3.60"/>
    </vehicle>
    <vehicle id="3.6" type="CarA_1.00" depart="23.00" departLane="best" departPos="base" departSpeed="random">
        <route edges="center1_SOUTH_ENTRANCE center1_SOUTH_2 center1_SOUTH_3 gneE9 center2_WEST_2 center2_WEST_2.91 center2_WEST_3 center2_WEST_3.60"/>
    </vehicle>
    <vehicle id="4.3" type="CarB_1.00" depart="23.00" departLane="best" departPos="base" departSpeed="random">
        <route edges="center1_WEST_demand center1_WEST_ENTRANCE center1_WEST_2 center1_WEST_3 center1_west_c_in_edge_4 center8_SOUTH_1 center8_SOUTH_2 center8_SOUTH_3 center8_SOUTH_6"/>
    </vehicle>
    <vType id="CarA_2.20" length="5.00" minGap="1.50" maxSpeed="50.00" probability="0.07" accel="2.6" decel="2.0" sigma="0.5" tau="2.2"/>
    <vehicle id="2.5" type="CarA_2.20" depart="25.00" departLane="best" departPos="base" departSpeed="random">
        <route edges="center1_NORTH_ENTRANCE center1_NORTH_4 center1_NORTH_5 center1_north_c_in_edge_6 center6_NORTH_1 center6_NORTH_2 center6_NORTH_3"/>
    </vehicle>
    <vehicle id="3.7" type="CarA_1.00" depart="26.00" departLane="best" departPos="base" departSpeed="random">
        <route edges="center1_SOUTH_ENTRANCE center1_SOUTH_2 center1_SOUTH_3 gneE9 center2_WEST_2 center2_WEST_2.91 center2_WEST_3 center2_WEST_3.60"/>
    </vehicle>
    <vehicle id="2.6" type="CarD_1.00" depart="29.00" departLane="best" departPos="base" departSpeed="random">
        <route edges="center1_NORTH_ENTRANCE center1_NORTH_4 center1_NORTH_5 center1_north_c_in_edge_6 center6_NORTH_1 center6_NORTH_2 center6_NORTH_3"/>
    </vehicle>
    <vehicle id="3.8" type="CarA_1.00" depart="29.00" departLane="best" departPos="base" departSpeed="random">
        <route edges="center1_SOUTH_ENTRANCE center1_SOUTH_2 center1_SOUTH_3 gneE9 center2_WEST_2 center2_WEST_out"/>
    </vehicle>
    <vehicle id="4.4" type="CarB_1.00" depart="30.00" departLane="best" departPos="base" departSpeed="random">
        <route edges="center1_WEST_demand center1_WEST_ENTRANCE center1_WEST_2 center1_WEST_3 center1_west_c_in_edge_4 center2_WEST_1 center2_WEST_2 center2_WEST_2.91 center2_WEST_3 center2_WEST_3.60"/>
    </vehicle>
    <vehicle id="1.4" type="CarA_2.20" depart="32.00" departLane="best" departPos="base" departSpeed="random">
        <route edges="center1_EAST_ENTRANCE center1_EAST_2 center1_EAST_3 center1_EAST_3.28 center1_east_c_in_edge_4 center6_NORTH_1 center6_NORTH_2 center6_NORTH_3"/>
    </vehicle>
    <vehicle id="2.7" type="CarA_1.00" depart="33.00" departLane="best" departPos="base" departSpeed="random">
        <route edges="center1_NORTH_ENTRANCE center1_NORTH_4 center1_NORTH_5 center1_north_c_in_edge_6 center2_WEST_1 center2_WEST_2 center2_WEST_out"/>
    </vehicle>
    <vehicle id="3.9" type="CarB_1.00" depart="33.00" departLane="best" departPos="base" departSpeed="random">
        <route edges="center1_SOUTH_ENTRANCE center1_SOUTH_2 center1_SOUTH_3 gneE9 center2_WEST_2 center2_WEST_out"/>
    </vehicle>
    <vehicle id="2.8" type="CarA_1.00" depart="34.00" departLane="best" departPos="base" departSpeed="random">
        <route edges="center1_NORTH_ENTRANCE center1_NORTH_4 center1_NORTH_5 center1_north_c_in_edge_6 center2_WEST_1 center2_WEST_2 center2_WEST_2.91 center2_WEST_3 center2_WEST_3.60"/>
    </vehicle>
    <vehicle id="4.5" type="CarC_1.00" depart="34.00" departLane="best" departPos="base" departSpeed="random">
        <route edges="center1_WEST_demand center1_WEST_ENTRANCE center1_WEST_2 center1_WEST_3 center1_west_c_in_edge_4 center2_WEST_1 center2_WEST_2 center2_WEST_2.91 center2_WEST_3 center2_WEST_3.60"/>
    </vehicle>
    <vehicle id="3.10" type="CarD_1.00" depart="35.00" departLane="best" departPos="base" departSpeed="random">
        <route edges="center1_SOUTH_ENTRANCE center1_SOUTH_2 center1_SOUTH_3 center1_south_c_in_edge_4 center8_SOUTH_1 center8_SOUTH_2 center8_SOUTH_3 center8_SOUTH_6"/>
    </vehicle>
    <vehicle id="4.6" type="CarC_1.00" depart="35.00" departLane="best" departPos="base" departSpeed="random">
        <route edges="center1_WEST_demand center1_WEST_ENTRANCE center1_WEST_2 center1_WEST_3 center1_west_c_in_edge_4 center2_WEST_1 center2_WEST_2 center2_WEST_2.91 center2_WEST_3 center2_WEST_3.60"/>
    </vehicle>
    <vehicle id="2.9" type="CarB_1.65" depart="36.00" departLane="best" departPos="base" departSpeed="random">
        <route edges="center1_NORTH_ENTRANCE center1_NORTH_4 center1_NORTH_5 center1_north_c_in_edge_6 center6_NORTH_1 center6_NORTH_2 center6_NORTH_3"/>
    </vehicle>
    <vehicle id="2.10" type="CarA_1.00" depart="37.00" departLane="best" departPos="base" departSpeed="random">
        <route edges="center1_NORTH_ENTRANCE center1_NORTH_4 center1_NORTH_5 center1_north_c_in_edge_6 center2_WEST_1 center2_WEST_2 center2_WEST_2.91 center2_WEST_3 center2_WEST_3.60"/>
    </vehicle>
    <vehicle id="4.7" type="CarB_1.00" depart="38.00" departLane="best" departPos="base" departSpeed="random">
        <route edges="center1_WEST_demand center1_WEST_ENTRANCE center1_WEST_2 center1_WEST_3 center1_west_c_in_edge_4 center2_WEST_1 center2_WEST_2 center2_WEST_2.91 center2_WEST_3 center2_WEST_3.60"/>
    </vehicle>
    <vehicle id="2.11" type="CarA_1.00" depart="39.00" departLane="best" departPos="base" departSpeed="random">
        <route edges="center1_NORTH_ENTRANCE center1_NORTH_4 center1_NORTH_5 center1_north_c_in_edge_6 center2_WEST_1 center2_WEST_2 center2_WEST_out"/>
    </vehicle>
    <vehicle id="3.11" type="CarB_2.20" depart="39.00" departLane="best" departPos="base" departSpeed="random">
        <route edges="center1_SOUTH_ENTRANCE center1_SOUTH_2 center1_SOUTH_3 center1_south_c_in_edge_4 center8_SOUTH_1 center8_SOUTH_2 center8_SOUTH_3 center8_SOUTH_6"/>
    </vehicle>
    <vehicle id="4.8" type="CarB_2.20" depart="39.00" departLane="best" departPos="base" departSpeed="random">
        <route edges="center1_WEST_demand center1_WEST_ENTRANCE center1_WEST_2 center1_WEST_3 center1_west_c_in_edge_4 center8_SOUTH_1 center8_SOUTH_2 center8_SOUTH_3 center8_SOUTH_6"/>
    </vehicle>
    <vehicle id="2.12" type="CarB_2.20" depart="40.00" departLane="best" departPos="base" departSpeed="random">
        <route edges="center1_NORTH_ENTRANCE center1_NORTH_4 center1_NORTH_5 center1_north_c_in_edge_6 center6_NORTH_1 center6_NORTH_2 center6_NORTH_3"/>
    </vehicle>
    <vehicle id="4.9" type="CarB_2.20" depart="40.00" departLane="best" departPos="base" departSpeed="random">
        <route edges="center1_WEST_demand center1_WEST_ENTRANCE gneE49"/>
    </vehicle>
    <vehicle id="2.13" type="CarB_1.00" depart="41.00" departLane="best" departPos="base" departSpeed="random">
        <route edges="center1_NORTH_ENTRANCE center1_NORTH_4 center1_NORTH_5 gneE19 center3_EAST_2 center3_EAST_2.318 center3_EAST_3 center3_EAST_4"/>
    </vehicle>
    <vehicle id="3.12" type="CarA_1.00" depart="42.00" departLane="best" departPos="base" departSpeed="random">
        <route edges="center1_SOUTH_ENTRANCE center1_SOUTH_2 center1_SOUTH_3 center1_south_c_in_edge_4 center3_EAST_1 center3_EAST_2 center3_EAST_2.318 center3_EAST_3 center3_EAST_4"/>
    </vehicle>
    <!-- <vType id="CarD_1.70" length="12.00" minGap="2.50" maxSpeed="30.00" probability="0.00" accel="1.0" decel="1.3" sigma="0.5" tau="1.7"/> -->
    <vType id="CarD_1.70" length="5.00" minGap="2.50" maxSpeed="30.00" probability="0.00" accel="1.0" decel="1.3" sigma="0.5" tau="1.7"/>
    <vehicle id="4.10" type="CarD_1.70" depart="42.00" departLane="best" departPos="base" departSpeed="random">
        <route edges="center1_WEST_demand center1_WEST_ENTRANCE center1_WEST_2 center1_WEST_3 center1_west_c_in_edge_4 center2_WEST_1 center2_WEST_2 center2_WEST_out"/>
    </vehicle>
    <vType id="CarA_1.70" length="5.00" minGap="1.50" maxSpeed="50.00" probability="0.02" accel="2.6" decel="2.0" sigma="0.5" tau="1.7"/>
    <vehicle id="4.11" type="CarA_1.70" depart="43.00" departLane="best" departPos="base" departSpeed="random">
        <route edges="center1_WEST_demand center1_WEST_ENTRANCE center1_WEST_2 center1_WEST_3 center1_west_c_in_edge_4 center2_WEST_1 center2_WEST_2 center2_WEST_out"/>
    </vehicle>
    <vehicle id="2.14" type="CarA_1.00" depart="46.00" departLane="best" departPos="base" departSpeed="random">
        <route edges="center1_NORTH_ENTRANCE center1_NORTH_4 center1_NORTH_5 gneE19 center3_EAST_2 center3_EAST_2.318 center3_EAST_3 center3_EAST_4"/>
    </vehicle>
    <vehicle id="2.15" type="CarA_2.20" depart="47.00" departLane="best" departPos="base" departSpeed="random">
        <route edges="center1_NORTH_ENTRANCE center1_NORTH_4 center1_NORTH_5 center1_north_c_in_edge_6 center6_NORTH_1 center6_NORTH_2 center6_NORTH_3"/>
    </vehicle>
    <vehicle id="4.12" type="CarA_1.65" depart="48.00" departLane="best" departPos="base" departSpeed="random">
        <route edges="center1_WEST_demand center1_WEST_ENTRANCE center1_WEST_2 center1_WEST_3 center1_west_c_in_edge_4 center8_SOUTH_1 center8_SOUTH_2 center8_SOUTH_3 center8_SOUTH_6"/>
    </vehicle>
    <vehicle id="2.16" type="CarB_1.00" depart="49.00" departLane="best" departPos="base" departSpeed="random">
        <route edges="center1_NORTH_ENTRANCE center1_NORTH_4 center1_NORTH_5 center1_north_c_in_edge_6 center2_WEST_1 center2_WEST_2 center2_WEST_2.91 center2_WEST_3 center2_WEST_3.60"/>
    </vehicle>
    <vehicle id="4.13" type="CarC_1.00" depart="49.00" departLane="best" departPos="base" departSpeed="random">
        <route edges="center1_WEST_demand center1_WEST_ENTRANCE center1_WEST_2 center1_WEST_3 center1_west_c_in_edge_4 center2_WEST_1 center2_WEST_2 center2_WEST_2.91 center2_WEST_3 center2_WEST_3.60"/>
    </vehicle>
    <vehicle id="4.14" type="CarD_1.00" depart="50.00" departLane="best" departPos="base" departSpeed="random">
        <route edges="center1_WEST_demand center1_WEST_ENTRANCE center1_WEST_2 center1_WEST_3 center1_west_center1_south center6_NORTH_2 center6_NORTH_3"/>
    </vehicle>
    <vehicle id="1.5" type="CarA_1.00" depart="51.00" departLane="best" departPos="base" departSpeed="random">
        <route edges="center1_EAST_ENTRANCE center1_EAST_2 center1_EAST_3 center1_EAST_3.28 center1_east_c_in_edge_4 center6_NORTH_1 center6_NORTH_2 center6_NORTH_3"/>
    </vehicle>
    <vehicle id="4.15" type="CarB_1.00" depart="51.00" departLane="best" departPos="base" departSpeed="random">
        <route edges="center1_WEST_demand center1_WEST_ENTRANCE center1_WEST_2 center1_WEST_3 center1_west_c_in_edge_4 center2_WEST_1 center2_WEST_2 center2_WEST_out"/>
    </vehicle>
    <vehicle id="3.13" type="CarB_1.00" depart="52.00" departLane="best" departPos="base" departSpeed="random">
        <route edges="center1_SOUTH_ENTRANCE center1_SOUTH_2 center1_SOUTH_3 gneE9 center2_WEST_2 center2_WEST_2.91 center2_WEST_3 center2_WEST_3.60"/>
    </vehicle>
    <vehicle id="4.16" type="CarA_1.00" depart="52.00" departLane="best" departPos="base" departSpeed="random">
        <route edges="center1_WEST_demand center1_WEST_ENTRANCE center1_WEST_2 center1_WEST_3 center1_west_center1_south center6_NORTH_2 center6_NORTH_3"/>
    </vehicle>
    <vehicle id="4.17" type="CarB_1.00" depart="53.00" departLane="best" departPos="base" departSpeed="random">
        <route edges="center1_WEST_demand center1_WEST_ENTRANCE center1_WEST_2 center1_WEST_3 center1_west_c_in_edge_4 center2_WEST_1 center2_WEST_2 center2_WEST_2.91 center2_WEST_3 center2_WEST_3.60"/>
    </vehicle>
    <vehicle id="4.18" type="CarB_1.00" depart="54.00" departLane="best" departPos="base" departSpeed="random">
        <route edges="center1_WEST_demand center1_WEST_ENTRANCE center1_WEST_2 center1_WEST_3 center1_west_center1_south center6_NORTH_2 center6_NORTH_3"/>
    </vehicle>
    <vehicle id="6.0" type="CarA_2.20" depart="54.00" departLane="best" departPos="base" departSpeed="random">
        <route edges="in_2_ENTRANCE center1_EAST_3.28 center1_east_c_in_edge_4 center6_NORTH_1 center6_NORTH_2 center6_NORTH_3"/>
    </vehicle>
    <vehicle id="2.17" type="CarA_1.70" depart="56.00" departLane="best" departPos="base" departSpeed="random">
        <route edges="center1_NORTH_ENTRANCE center1_NORTH_4 center1_NORTH_5 gneE19 center3_EAST_2 center3_EAST_2.318 center3_EAST_3 center3_EAST_4"/>
    </vehicle>
    <vehicle id="4.19" type="CarB_1.65" depart="56.00" departLane="best" departPos="base" departSpeed="random">
        <route edges="center1_WEST_demand center1_WEST_ENTRANCE center1_WEST_2 center1_WEST_3 center1_west_c_in_edge_4 center8_SOUTH_1 center8_SOUTH_2 center8_SOUTH_3 center8_SOUTH_6"/>
    </vehicle>
    <vehicle id="3.14" type="CarA_1.00" depart="57.00" departLane="best" departPos="base" departSpeed="random">
        <route edges="center1_SOUTH_ENTRANCE center1_SOUTH_2 center1_SOUTH_3 center1_south_c_in_edge_4 center8_SOUTH_1 center8_SOUTH_2 center8_SOUTH_3 center8_SOUTH_6"/>
    </vehicle>
    <vehicle id="1.6" type="CarA_2.20" depart="58.00" departLane="best" departPos="base" departSpeed="random">
        <route edges="center1_EAST_ENTRANCE center1_EAST_2 center1_EAST_3 center1_EAST_out"/>
    </vehicle>
    <vehicle id="4.20" type="CarA_1.00" depart="59.00" departLane="best" departPos="base" departSpeed="random">
        <route edges="center1_WEST_demand center1_WEST_ENTRANCE center1_WEST_2 center1_WEST_3 center1_west_center1_south center6_NORTH_2 center6_NORTH_3"/>
    </vehicle>
    <vehicle id="2.18" type="CarB_1.65" depart="60.00" departLane="best" departPos="base" departSpeed="random">
        <route edges="center1_NORTH_ENTRANCE center1_NORTH_4 center1_NORTH_5 gneE19 center3_EAST_2 center3_EAST_2.318 center3_EAST_3 center3_EAST_4"/>
    </vehicle>
    <vehicle id="4.21" type="CarC_1.00" depart="60.00" departLane="best" departPos="base" departSpeed="random">
        <route edges="center1_WEST_demand center1_WEST_ENTRANCE center1_WEST_2 center1_WEST_3 center1_west_c_in_edge_4 center2_WEST_1 center2_WEST_2 center2_WEST_out"/>
    </vehicle>
    <vehicle id="2.19" type="CarA_1.00" depart="63.00" departLane="best" departPos="base" departSpeed="random">
        <route edges="center1_NORTH_ENTRANCE center1_NORTH_4 center1_NORTH_5 gneE19 center3_EAST_2 center3_EAST_2.318 center3_EAST_3 center3_EAST_4"/>
    </vehicle>
    <vehicle id="4.22" type="CarB_1.00" depart="65.00" departLane="best" departPos="base" departSpeed="random">
        <route edges="center1_WEST_demand center1_WEST_ENTRANCE center1_WEST_2 center1_WEST_3 center1_west_c_in_edge_4 center2_WEST_1 center2_WEST_2 center2_WEST_out"/>
    </vehicle>
    <vehicle id="3.15" type="CarB_1.00" depart="66.00" departLane="best" departPos="base" departSpeed="random">
        <route edges="center1_SOUTH_ENTRANCE center1_SOUTH_2 center1_SOUTH_3 center1_south_c_in_edge_4 center8_SOUTH_1 center8_SOUTH_2 center8_SOUTH_3 center8_SOUTH_6"/>
    </vehicle>
    <vehicle id="4.23" type="CarA_2.20" depart="67.00" departLane="best" departPos="base" departSpeed="random">
        <route edges="center1_WEST_demand center1_WEST_ENTRANCE center1_WEST_2 center1_WEST_3 center1_west_center1_south center6_NORTH_2 center6_NORTH_3"/>
    </vehicle>
    <vehicle id="3.16" type="CarA_1.65" depart="68.00" departLane="best" departPos="base" departSpeed="random">
        <route edges="center1_SOUTH_ENTRANCE center1_SOUTH_2 center1_SOUTH_3 gneE9 center2_WEST_2 center2_WEST_2.91 center2_WEST_3 center2_WEST_3.60"/>
    </vehicle>
    <vehicle id="3.17" type="CarB_1.00" depart="69.00" departLane="best" departPos="base" departSpeed="random">
        <route edges="center1_SOUTH_ENTRANCE center1_SOUTH_2 center1_SOUTH_3 center1_south_c_in_edge_4 center8_SOUTH_1 center8_SOUTH_2 center8_SOUTH_3 center8_SOUTH_6"/>
    </vehicle>
    <vehicle id="4.24" type="CarB_1.00" depart="70.00" departLane="best" departPos="base" departSpeed="random">
        <route edges="center1_WEST_demand center1_WEST_ENTRANCE center1_WEST_2 center1_WEST_3 center1_west_c_in_edge_4 center2_WEST_1 center2_WEST_2 center2_WEST_2.91 center2_WEST_3 center2_WEST_3.60"/>
    </vehicle>
    <vehicle id="4.25" type="CarA_1.00" depart="71.00" departLane="best" departPos="base" departSpeed="random">
        <route edges="center1_WEST_demand center1_WEST_ENTRANCE center1_WEST_2 center1_WEST_3 center1_west_c_in_edge_4 center2_WEST_1 center2_WEST_2 center2_WEST_2.91 center2_WEST_3 center2_WEST_3.60"/>
    </vehicle>
    <vehicle id="4.26" type="CarC_1.00" depart="72.00" departLane="best" departPos="base" departSpeed="random">
        <route edges="center1_WEST_demand center1_WEST_ENTRANCE center1_WEST_2 center1_WEST_3 center1_west_c_in_edge_4 center2_WEST_1 center2_WEST_2 center2_WEST_out"/>
    </vehicle>
    <vehicle id="3.18" type="CarB_1.00" depart="73.00" departLane="best" departPos="base" departSpeed="random">
        <route edges="center1_SOUTH_ENTRANCE center1_SOUTH_2 center1_SOUTH_3 center1_south_c_in_edge_4 center8_SOUTH_1 center8_SOUTH_2 center8_SOUTH_3 center8_SOUTH_6"/>
    </vehicle>
    <vehicle id="4.27" type="CarB_2.20" depart="75.00" departLane="best" departPos="base" departSpeed="random">
        <route edges="center1_WEST_demand center1_WEST_ENTRANCE center1_WEST_2 center1_WEST_3 center1_west_c_in_edge_4 center2_WEST_1 center2_WEST_2 center2_WEST_out"/>
    </vehicle>
    <vehicle id="1.7" type="CarB_1.00" depart="76.00" departLane="best" departPos="base" departSpeed="random">
        <route edges="center1_EAST_ENTRANCE center1_EAST_2 center1_EAST_3 center1_EAST_3.28 center1_east_c_in_edge_4 center6_NORTH_1 center6_NORTH_2 center6_NORTH_3"/>
    </vehicle>
    <vehicle id="4.28" type="CarB_1.65" depart="76.00" departLane="best" departPos="base" departSpeed="random">
        <route edges="center1_WEST_demand center1_WEST_ENTRANCE center1_WEST_2 center1_WEST_3 center1_west_c_in_edge_4 center2_WEST_1 center2_WEST_2 center2_WEST_2.91 center2_WEST_3 center2_WEST_3.60"/>
    </vehicle>
    <!-- <vType id="CarC_1.70" length="7.50" minGap="2.00" maxSpeed="40.00" probability="0.02" accel="2.5" decel="2.0" sigma="0.5" tau="1.7"/> -->
    <vType id="CarC_1.70" length="5.00" minGap="2.00" maxSpeed="40.00" probability="0.02" accel="2.5" decel="2.0" sigma="0.5" tau="1.7"/>
    <vehicle id="4.29" type="CarC_1.70" depart="78.00" departLane="best" departPos="base" departSpeed="random">
        <route edges="center1_WEST_demand center1_WEST_ENTRANCE center1_WEST_2 center1_WEST_3 center1_west_center1_south center6_NORTH_2 center6_NORTH_3"/>
    </vehicle>
    <vehicle id="4.30" type="CarA_2.20" depart="80.00" departLane="best" departPos="base" departSpeed="random">
        <route edges="center1_WEST_demand center1_WEST_ENTRANCE center1_WEST_2 center1_WEST_3 center1_west_c_in_edge_4 center2_WEST_1 center2_WEST_2 center2_WEST_out"/>
    </vehicle>
    <vehicle id="4.31" type="CarA_1.00" depart="82.00" departLane="best" departPos="base" departSpeed="random">
        <route edges="center1_WEST_demand center1_WEST_ENTRANCE center1_WEST_2 center1_WEST_3 center1_west_c_in_edge_4 center2_WEST_1 center2_WEST_2 center2_WEST_out"/>
    </vehicle>
    <vehicle id="4.32" type="CarA_1.00" depart="83.00" departLane="best" departPos="base" departSpeed="random">
        <route edges="center1_WEST_demand center1_WEST_ENTRANCE center1_WEST_2 center1_WEST_3 center1_west_c_in_edge_4 center2_WEST_1 center2_WEST_2 center2_WEST_2.91 center2_WEST_3 center2_WEST_3.60"/>
    </vehicle>
    <vehicle id="3.19" type="CarB_1.00" depart="85.00" departLane="best" departPos="base" departSpeed="random">
        <route edges="center1_SOUTH_ENTRANCE center1_SOUTH_2 center1_SOUTH_3 gneE9 center2_WEST_2 center2_WEST_out"/>
    </vehicle>
    <vehicle id="4.33" type="CarB_1.00" depart="85.00" departLane="best" departPos="base" departSpeed="random">
        <route edges="center1_WEST_demand center1_WEST_ENTRANCE center1_WEST_2 center1_WEST_3 center1_west_c_in_edge_4 center2_WEST_1 center2_WEST_2 center2_WEST_out"/>
    </vehicle>
    <vehicle id="4.34" type="CarA_1.00" depart="86.00" departLane="best" departPos="base" departSpeed="random">
        <route edges="center1_WEST_demand center1_WEST_ENTRANCE center1_WEST_2 center1_WEST_3 center1_west_c_in_edge_4 center2_WEST_1 center2_WEST_2 center2_WEST_2.91 center2_WEST_3 center2_WEST_3.60"/>
    </vehicle>
    <vehicle id="7.0" type="CarB_1.00" depart="86.00" departLane="best" departPos="base" departSpeed="random">
        <route edges="wumo_SOUTH_ENTRANCE wumo_SOUTH_1 center1_WEST_2 center1_WEST_3 center1_west_c_in_edge_4 center2_WEST_1 center2_WEST_2 center2_WEST_out"/>
    </vehicle>
    <vehicle id="3.20" type="CarB_1.00" depart="90.00" departLane="best" departPos="base" departSpeed="random">
        <route edges="center1_SOUTH_ENTRANCE center1_SOUTH_2 center1_SOUTH_3 center1_south_c_in_edge_4 center8_SOUTH_1 center8_SOUTH_2 center8_SOUTH_3 center8_SOUTH_6"/>
    </vehicle>
    <vehicle id="3.21" type="CarB_1.00" depart="93.00" departLane="best" departPos="base" departSpeed="random">
        <route edges="center1_SOUTH_ENTRANCE center1_SOUTH_2 center1_SOUTH_3 gneE9 center2_WEST_2 center2_WEST_2.91 center2_WEST_3 center2_WEST_3.60"/>
    </vehicle>
    <vehicle id="4.35" type="CarA_1.00" depart="93.00" departLane="best" departPos="base" departSpeed="random">
        <route edges="center1_WEST_demand center1_WEST_ENTRANCE center1_WEST_2 center1_WEST_3 center1_west_c_in_edge_4 center2_WEST_1 center2_WEST_2 center2_WEST_out"/>
    </vehicle>
    <vehicle id="4.36" type="CarC_1.70" depart="94.00" departLane="best" departPos="base" departSpeed="random">
        <route edges="center1_WEST_demand center1_WEST_ENTRANCE center1_WEST_2 center1_WEST_3 center1_west_center1_south center6_NORTH_2 center6_NORTH_3"/>
    </vehicle>
    <vehicle id="3.22" type="CarD_1.70" depart="96.00" departLane="best" departPos="base" departSpeed="random">
        <route edges="center1_SOUTH_ENTRANCE center1_SOUTH_2 center1_SOUTH_3 gneE9 center2_WEST_2 center2_WEST_out"/>
    </vehicle>
    <vehicle id="4.37" type="CarB_1.00" depart="96.00" departLane="best" departPos="base" departSpeed="random">
        <route edges="center1_WEST_demand center1_WEST_ENTRANCE center1_WEST_2 center1_WEST_3 center1_west_center1_south center6_NORTH_2 center6_NORTH_3"/>
    </vehicle>