<?xml version="1.0" encoding="UTF-8"?>

<!-- generated on Fri May  8 14:32:06 2020 by Eclipse SUMO jtrrouter Version UNKNOWN
<configuration xmlns:xsi="http://www.w3.org/2001/XMLSchema-instance" xsi:noNamespaceSchemaLocation="http://sumo.dlr.de/xsd/jtrrouterConfiguration.xsd">

    <input>
        <net-file value="shenzhen_3by3_loops_modified_12int_center.net.xml"/>
        <route-files value="flow_800_905_0417.flow.xml"/>
        <turn-ratio-files value="turn_800_905_add_right_0417.turns.xml"/>
    </input>

    <output>
        <output-file value="flow_turns_rou_0506.rou.xml"/>
    </output>

    <processing>
        <no-internal-links value="true"/>
        <accept-all-destinations value="true"/>
    </processing>

</configuration>
-->

<routes xmlns:xsi="http://www.w3.org/2001/XMLSchema-instance" xsi:noNamespaceSchemaLocation="http://sumo.dlr.de/xsd/routes_file.xsd">
    <vType id="CarB_1.70" length="5.00" minGap="1.50" maxSpeed="40.00" probability="0.02" accel="2.5" decel="2.0" sigma="0.5" tau="1.7"/>
    <vehicle id="10.0" type="CarB_1.70" depart="0.00" departLane="best" departPos="base" departSpeed="random">
        <route edges="87950181 12880842 71801145 71801146 71801140 71801141 12880792 12880788 35820669 75968149 75968153 75968154 75968158 67011039 67011040 12880822 79325407 79325408 61557854 18724116 18724117 1299477 87950267 97235633 97235601 62712769 67011034 67011033 62712764 72278905"/>
    </vehicle>
    <vType id="CarD_1.00" length="12.00" minGap="2.50" maxSpeed="30.00" probability="0.06" accel="1.0" decel="1.3" sigma="0.5" tau="1.0"/>
    <vehicle id="12.0" type="CarD_1.00" depart="0.00" departLane="best" departPos="base" departSpeed="random">
        <route edges="67010956 67010955 61557830 67010868 67010867 1299467 15530597 15530596 12880833 102792918 102792917 15530591 35820694 102792897 102792896 61557863 61557862 12880848_1288 79325407 79325408 61557854 18724116 18724117 1299477 87950267 97235633 97235601 62712769 67011034 67011033 62712764 72278905"/>
    </vehicle>
    <vType id="CarB_2.20" length="5.00" minGap="1.50" maxSpeed="40.00" probability="0.10" accel="2.5" decel="2.0" sigma="0.5" tau="2.2"/>
    <vehicle id="3.0" type="CarB_2.20" depart="1.00" departLane="best" departPos="base" departSpeed="random">
        <route edges="44459654 44459653 41507565 41507564 79218442 41507575 44459649 44459648 1182542 1183910 1183947 41507426 41507633 41507632 1175231 48191854 48191853 1307314 35818565 35818564 87950261 61557878 61557877 87950274 12880803 12880822 79325407 79325408 61557854 18724116 18724117 1299477 87950267 97235633 97235601 62712769 67011034 67011033 62712764 72278905"/>
    </vehicle>
    <vType id="CarA_1.00" length="5.00" minGap="1.50" maxSpeed="50.00" probability="0.23" accel="2.6" decel="2.0" sigma="0.5" tau="1.0"/>
    <vehicle id="5.0" type="CarA_1.00" depart="2.00" departLane="best" departPos="base" departSpeed="random">
        <route edges="1316713 49280842 49280841 49280831 15488224 15488223 44459644 103278303 103278302 49370533_4937 1175112 1175100 15530560 15530561 71801128 71801129 49280825_4928 1319728 62972507 62972505 62972503 62972501 62972499 62972497"/>
    </vehicle>
    <vType id="CarB_1.00" length="5.00" minGap="1.50" maxSpeed="40.00" probability="0.35" accel="2.5" decel="2.0" sigma="0.5" tau="1.0"/>
    <vehicle id="8.0" type="CarB_1.00" depart="2.00" departLane="best" departPos="base" departSpeed="random">
        <route edges="75968140 75968139 97235605 75968147 67010994 67010993 39675385 97235601 62712769 67011034 67011033 62712764 72278905"/>
    </vehicle>
    <vType id="CarA_2.20" length="5.00" minGap="1.50" maxSpeed="50.00" probability="0.07" accel="2.6" decel="2.0" sigma="0.5" tau="2.2"/>
    <vehicle id="1.0" type="CarA_2.20" depart="3.00" departLane="best" departPos="base" departSpeed="random">
        <route edges="1196333 16350582 16350585 16350587 16350586 1196297 1196295 72649503 72649502 58200931 48191749 48191748 1182537 1183910 1183947 41507426 41507633 41507632 1175231 48191854 48191853 1307314 35818565 35818564 87950261 61557878 61557877 87950274 12880803 12880822 79325407 79325408 61557854 18724116 18724117 1299477 87950267 97235633 97235601 62712769 67011034 67011033 62712764 72278905"/>
    </vehicle>
    <vehicle id="7.0" type="CarA_1.00" depart="3.00" departLane="best" departPos="base" departSpeed="random">
        <route edges="18724132 67010770 67010769 67010800 67010802 67010801 1319723 44660399 44660400 35820702 35820703 35820846 35820847 43842053 43842054 1307296 87950198 15530564 15530563 1174933 1183939 1175109 1196364 79218447 79218446 103278351 15488228 18724100 18724099"/>
    </vehicle>
    <vehicle id="8.1" type="CarB_1.00" depart="3.00" departLane="best" departPos="base" departSpeed="random">
        <route edges="75968140 75968139 97235605 75968147 67010994 67010993 39675385 97235601 62712769 67011034 67011033 62712764 72278905"/>
    </vehicle>
    <vType id="CarB_1.65" length="5.00" minGap="1.50" maxSpeed="40.00" probability="0.05" accel="2.5" decel="2.0" sigma="0.5" tau="1.65"/>
    <vehicle id="4.0" type="CarB_1.65" depart="4.00" departLane="best" departPos="base" departSpeed="random">
        <route edges="18724097 18724098 15488231 79218449 1196368 1175097 1175112 1175100 15530560 15530561 71801128 71801129 1319726 1307294 43842056 35820720 35820719 35820705 35820704 61557811 44660402 44660401 18724122 15530610 15530611 1319680 67010863 67010864 61557826 67010957 67010958 67010874 67010875 102792910"/>
    </vehicle>
    <vType id="CarC_1.00" length="7.50" minGap="2.00" maxSpeed="40.00" probability="0.05" accel="2.5" decel="2.0" sigma="0.5" tau="1.0"/>
    <vehicle id="5.1" type="CarC_1.00" depart="4.00" departLane="best" departPos="base" departSpeed="random">
        <route edges="1316713 49280842 49280841 49280831 15488224 15488223 44459644 103278303 103278302 1183934 1176652 49370523 49370526 79218501 79218500 49370530 49370529 1183962 1183916 1178299 58200933 72649498 72649499 1194993 1196303 87900959 87900958 1194962 1195009 41507503 41507502 41507499"/>
    </vehicle>
    <vehicle id="12.1" type="CarB_1.65" depart="5.00" departLane="best" departPos="base" departSpeed="random">
        <route edges="67010956 67010955 61557830 67010868 67010867 1299467 15530597 15530596 12880833 102792918 102792917 15530591 35820694 102792897 102792896 61557863 61557862 12880816 67011036 67011035 75968156 75968152 75968151 12880801 12880797 49280863 1322629 72608755 72608754 1198004 1240866 41507478 41507496 41507495 41507490 1180898 1196303 87900959 87900958 1194962 68206673-1 68206675-1"/>
    </vehicle>
    <vehicle id="7.1" type="CarC_1.00" depart="5.00" departLane="best" departPos="base" departSpeed="random">
        <route edges="18724132 67010770 67010769 67010800 67010802 67010801 12880833 102792918 102792917 15530591 35820694 102792897 102792896 61557863 61557862 12880848_1288 79325407 79325408 61557854 18724116 18724117 1299477 87950267 97235633 97235601 62712769 67011034 67011033 62712764 72278905"/>
    </vehicle>
    <vehicle id="9.0" type="CarB_1.00" depart="5.00" departLane="best" departPos="base" departSpeed="random">
        <route edges="67011031 67011032 62712771 61557833 97235635 97235646 67010991 67010992 75968145 97235606 75968141 75968142 67010956 67010955 61557830 67010868 67010867 1299467 15530597 15530596 12880833 102792918 102792917 15530591 35820694 102792897 102792896 61557863 61557862 12880848_1288 79325407 79325408 61557854 18724116 18724117 1299477 87950267 97235633 97235601 62712769 67011034 67011033 62712764 72278905"/>
    </vehicle>
    <vehicle id="1.1" type="CarB_1.00" depart="6.00" departLane="best" departPos="base" departSpeed="random">
        <route edges="1196333 16350582 16350585 16350587 16350586 1196297 1196295 72649503 72649502 58200931 48191749 48191748 1182537 1183900 1183956 49370517 49370518 79218498 79218499 49370527 49370528 1196360 1183929 103278300 103278301 15488190 15488191 49683815 49683816 49627397 44660403 44660404"/>
    </vehicle>
    <vehicle id="5.2" type="CarB_1.00" depart="7.00" departLane="best" departPos="base" departSpeed="random">
        <route edges="1316713 49280842 49280841 49280831 15488224 15488223 44459644 103278303 103278302 1183934 1196364 79218447 79218446 103278351 15488228 18724100 18724099"/>
    </vehicle>
    <vType id="CarA_1.70" length="5.00" minGap="1.50" maxSpeed="50.00" probability="0.02" accel="2.6" decel="2.0" sigma="0.5" tau="1.7"/>
    <vehicle id="8.2" type="CarA_1.70" depart="7.00" departLane="best" departPos="base" departSpeed="random">
        <route edges="75968140 75968139 97235605 75968147 67010994 67010993 39675385 97235601 62712769 67011034 67011033 62712764 72278905"/>
    </vehicle>
    <vehicle id="11.0" type="CarD_1.00" depart="8.00" departLane="best" departPos="base" departSpeed="random">
        <route edges="1240882 41507451 41507455 41507459 41507473 41507472 1240868 1240872 1240875 35686347 35686351 35686352 41507650 41507651 1307319 49280817 1176752 35686335 35686336 41507428 1183953 1182529 44459646 44459647 1178305 41507566 41507567 44459651 44459652"/>
    </vehicle>
    <vehicle id="4.1" type="CarA_1.00" depart="8.00" departLane="best" departPos="base" departSpeed="random">
        <route edges="18724097 18724098 15488231 79218449 1196368 1175097 1175112 1175100 15530560 15530561 71801128 71801129 1319726 1307294 43842056 35820720 35820719 35820705 35820704 61557811 44660402 44660401 18724122 15530610 15530611 1319680 67010863 67010864 61557826 67010957 67010958 75968140 75968139 97235605 75968147 67010994 67010993 39675385 97235601 62712769 67011034 67011033 62712764 72278905"/>
    </vehicle>
    <vehicle id="5.3" type="CarC_1.00" depart="8.00" departLane="best" departPos="base" departSpeed="random">
        <route edges="1316713 49280842 49280841 49280831 15488224 15488223 44459644 103278303 103278302 49370533_4937 1175112 1175100 15530560 15530561 71801128 71801129 1319726 1307298 1307303 16350532 71801135 71801134 1307311 1302722 1176752 35686335 35686336 41507428 1183953 1182529 44459646 44459647 1178305 41507566 41507567 44459651 44459652"/>
    </vehicle>
    <vehicle id="5.4" type="CarB_1.00" depart="9.00" departLane="best" departPos="base" departSpeed="random">
        <route edges="1316713 49280842 49280841 49280831 15488224 15488223 44459644 103278303 103278302 49370533_4937 1175112 1175100 15530560 15530561 71801128 71801129 1319726 1307298 1307303 16350532 71801135 71801134 1307311 1307307 1307306 15488243 35686356 35686358 35686357 1175090 49370552_4937 72608756 72608757 71801138 71801139 49280856 12880795 67011088 67011087 71801144 71801150 71801149 87950185"/>
    </vehicle>
    <vehicle id="8.3" type="CarB_1.00" depart="9.00" departLane="best" departPos="base" departSpeed="random">
        <route edges="75968140 75968139 97235605 75968147 67010994 67010993 39675385 97235601 62712769 67011034 67011033 62712764 72278905"/>
    </vehicle>
    <vehicle id="12.2" type="CarB_1.70" depart="10.00" departLane="best" departPos="base" departSpeed="random">
        <route edges="67010956 67010955 61557830 67010868 67010867 1299467 15530597 15530596 18724128 67010827 67010829 67010830 61557806"/>
    </vehicle>
    <vehicle id="4.2" type="CarB_1.00" depart="10.00" departLane="best" departPos="base" departSpeed="random">
        <route edges="18724097 18724098 15488231 79218449 1196368 1175097 1175112 1175100 15530560 15530561 71801128 71801129 1319726 1307298 1307303 16350532 71801135 71801134 1307311 1307307 1307306 15488243 35686356 35686358 35686357 1175090 1175088 1240866 41507478 41507496 41507495 41507490 1180898 1196303 87900959 87900958 1194962 1195009 41507503 41507502 41507499"/>
    </vehicle>
    <vehicle id="5.5" type="CarA_1.00" depart="10.00" departLane="best" departPos="base" departSpeed="random">
        <route edges="1316713 49280842 49280841 49280831 15488224 15488223 44459644 103278303 103278302 1183934 1176652 49370523 49370526 79218501 79218500 49370530 49370529 1183962 1183916 1178299 58200933 72649498 72649499 1194993 1180902 16350568 16350573 16350574 43842047 43842048 1194975"/>
    </vehicle>
    <vehicle id="8.4" type="CarB_1.65" depart="10.00" departLane="best" departPos="base" departSpeed="random">
        <route edges="75968140 75968139 97235605 75968147 67010994 67010993 39675385 97235645 97235644 18724118 1316463 1302730 61557852 61557859 61557858 12880814 61557860 61557861 35820683 35820684 15530566 61557818 61557819 12880837 61557816_6155 44660399 44660400 35820702 35820703 35820846 35820847 43842053 43842054 1307296 87950198 15530564 15530563 1174933 1183939 1175109 1183929 103278300 103278301 15488190 15488191 49683815 49683816 49627397 44660403 44660404"/>
    </vehicle>
    <vehicle id="5.6" type="CarB_2.20" depart="11.00" departLane="best" departPos="base" departSpeed="random">
        <route edges="1316713 49280842 49280841 49280831 15488224 15488223 44459644 103278303 103278302 1183934 1176652 49370523 49370526 79218501 79218500 49370530 49370529 49370515_4937 1183947 41507426 41507633 41507632 1175231 48191854 49683821 16350557 16350558 71801126 71801127 1319727 1319728 18724111 18724112 1307288"/>
    </vehicle>
    <vehicle id="5.7" type="CarB_1.65" depart="12.00" departLane="best" departPos="base" departSpeed="random">
        <route edges="1316713 49280842 49280841 49280831 15488224 15488223 44459644 103278303 103278302 49370533_4937 1175112 1175100 15530560 15530561 71801128 71801129 1319726 1307294 43842056 35820720 35820719 35820705 35820704 61557811 44660402 44660401 18724122 15530610 15530611 1319680 67010863 67010864 61557826 67010957 67010958 67010874 67010875 102792910"/>
    </vehicle>
    <vehicle id="7.2" type="CarB_1.00" depart="12.00" departLane="best" departPos="base" departSpeed="random">
        <route edges="18724132 67010770 67010769 67010800 67010802 67010801 12880833 102792918 102792917 15530591 35820694 102792897 102792896 61557863 61557862 12880816 67011036 67011035 75968156 75968152 75968151 12880801 12880797 49280863 1322629 72608755 72608754 1198004 1240866 41507478 41507496 41507495 41507490 1180898 1196303 87900959 87900958 1194962 1195009 41507503 41507502 41507499"/>
    </vehicle>
    <vehicle id="8.5" type="CarC_1.00" depart="12.00" departLane="best" departPos="base" departSpeed="random">
        <route edges="75968140 75968139 97235605 75968147 67010994 67010993 39675385 97235601 62712769 67011034 67011033 62712764 72278905"/>
    </vehicle>
    <vehicle id="1.2" type="CarB_1.00" depart="15.00" departLane="best" departPos="base" departSpeed="random">
        <route edges="1196333 16350582 16350585 16350587 16350586 1196297 1196295 72649503 72649502 58200931 48191749 48191748 1182537 1183910 1183947 41507426 41507633 41507632 1175231 48191854 48191853 1307314 35818565 35818564 87950261 61557878 61557877 87950274 12880803 67011036 67011035 75968156 75968152 75968151 12880801 67011088 67011087 71801144 71801150 71801149 87950185"/>
    </vehicle>
    <vehicle id="2.0" type="CarB_1.00" depart="15.00" departLane="best" departPos="base" departSpeed="random">
        <route edges="36589233 36589234 1196306 1180902 16350568 16350573 16350574 43842047 43842048 1194975"/>
    </vehicle>
    <vehicle id="6.0" type="CarB_1.70" depart="15.00" departLane="best" departPos="base" departSpeed="random">
        <route edges="71801131 71801130 1307293 87950198 15530564 15530563 1174933 1183939 1175109 1183929 103278300 103278301 15488190 15488191 49683815 49683816 49627397 44660403 44660404"/>
    </vehicle>
    <vehicle id="5.8" type="CarB_1.00" depart="16.00" departLane="best" departPos="base" departSpeed="random">
        <route edges="1316713 49280842 49280841 49280831 15488224 15488223 44459644 103278303 103278302 1183934 1176652 49370523 49370526 79218501 79218500 49370530 49370529 1183962 1183916 1178299 58200933 72649498 72649499 49370544_4937 41507488 41507489 41507483 41507493 41507494 41507480 1240869 1175083 72608756 72608757 71801138 71801139 49280856 12880795 67011088 67011087 71801144 71801150 71801149 87950185"/>
    </vehicle>
    <vehicle id="1.3" type="CarB_2.20" depart="17.00" departLane="best" departPos="base" departSpeed="random">
        <route edges="1196333 16350582 16350585 16350587 16350586 1196297 1196295 72649503 72649502 58200931 48191749 48191748 1182537 1183910 1183947 41507426 41507633 41507632 1175231 48191854 49683821 16350557 16350558 1302721-2 1187488-2 35686426-2 35686425-2 49370530 49370529 1183962 1183916 1178299 58200933 72649498 72649499 1194993 1196303 87900959 87900958 1194962 68206673-1 68206675-1"/>
    </vehicle>
    <vehicle id="3.1" type="CarA_1.70" depart="17.00" departLane="best" departPos="base" departSpeed="random">
        <route edges="44459654 44459653 41507565 41507564 79218442 41507575 44459649 44459648 1182542 1183910 1183947 41507426 41507633 41507632 1175231 48191854 48191853 1307314 35818565 35818564 87950261 61557878 61557877 87950274 12880803 67011036 67011035 75968156 75968152 75968151 12880801 67011088 67011087 71801144 71801150 71801149 87950185"/>
    </vehicle>
    <vType id="CarA_1.65" length="5.00" minGap="1.50" maxSpeed="50.00" probability="0.03" accel="2.6" decel="2.0" sigma="0.5" tau="1.65"/>
    <vehicle id="1.4" type="CarA_1.65" depart="18.00" departLane="best" departPos="base" departSpeed="random">
        <route edges="1196333 16350582 16350585 16350587 16350586 1196297 1196295 72649503 72649502 58200931 48191749 48191748 49370512_4937 44459646 44459647 1178305 41507566 41507567 44459651 44459652"/>
    </vehicle>
    <vehicle id="5.9" type="CarB_1.00" depart="18.00" departLane="best" departPos="base" departSpeed="random">
        <route edges="1316713 49280842 49280841 49280831 15488224 15488223 44459644 103278303 103278302 1183934 1176652 49370523 49370526 79218501 79218500 49370530 49370529 1183962 1182529 44459646 44459647 1178305 41507566 41507567 44459651 44459652"/>
    </vehicle>
    <vehicle id="6.1" type="CarB_1.65" depart="18.00" departLane="best" departPos="base" departSpeed="random">
        <route edges="71801131 71801130 1307293 1307298 1307303 16350532 71801135 71801134 1307311 1307307 1307306 15488243 35686356 35686358 35686357 1175090 1175088 1240866 41507478 41507496 41507495 41507490 1180898 1196303 87900959 87900958 1194962 68206673-1 68206675-1"/>
    </vehicle>
    <vehicle id="1.5" type="CarA_1.00" depart="20.00" departLane="best" departPos="base" departSpeed="random">
        <route edges="1196333 16350582 16350585 16350587 16350586 1196297 1196295 72649503 72649502 58200931 48191749 48191748 49370512_4937 44459646 44459647 1178305 41507566 41507567 44459651 44459652"/>
    </vehicle>
    <vehicle id="10.1" type="CarB_2.20" depart="20.00" departLane="best" departPos="base" departSpeed="random">
        <route edges="87950181 12880842 71801145 71801146 71801140 71801141 12880792 12880788 35820669 75968149 75968153 75968154 75968158 67011039 67011040 12880822 79325407 79325408 61557854 18724116 18724117 1299477 87950267 97235633 97235601 62712769 67011034 67011033 62712764 72278905"/>
    </vehicle>
    <vType id="CarC_1.65" length="7.50" minGap="2.00" maxSpeed="40.00" probability="0.01" accel="2.5" decel="2.0" sigma="0.5" tau="1.65"/>
    <vehicle id="8.6" type="CarC_1.65" depart="20.00" departLane="best" departPos="base" departSpeed="random">
        <route edges="75968140 75968139 97235605 75968147 67010994 67010993 39675385 97235601 62712769 67011034 67011033 62712764 72278905"/>
    </vehicle>
    <vehicle id="5.10" type="CarB_1.00" depart="21.00" departLane="best" departPos="base" departSpeed="random">
        <route edges="1316713 49280842 49280841 49280831 15488224 15488223 44459644 103278303 103278302 49370533_4937 1175112 1175100 15530560 15530561 71801128 71801129 1319726 1307294 43842056 35820720 35820719 35820705 35820704 61557811 44660402 44660401 18724122 15530610 15530611 1319680 67010863 67010864 61557826 67010957 67010958 75968140 75968139 97235605 75968147 67010994 67010993 39675385 97235645 97235644 18724118 1316463 1302730 61557852 61557859 61557858 87950271 61557875 61557876 87950266 75968172 71801137 49280822_4928 1307306 15488243 35686356 35686358 35686357 1175090 1175088 1240866 41507478 41507496 41507495 41507490 1180898 1196303 87900959 87900958 1194962 1195009 41507503 41507502 41507499"/>
    </vehicle>
    <vehicle id="8.7" type="CarB_2.20" depart="21.00" departLane="best" departPos="base" departSpeed="random">
        <route edges="75968140 75968139 97235605 75968147 67010994 67010993 39675385 97235601 62712769 67011034 67011033 62712764 72278905"/>
    </vehicle>
    <vehicle id="10.2" type="CarB_1.00" depart="22.00" departLane="best" departPos="base" departSpeed="random">
        <route edges="87950181 12880842 71801145 71801146 71801140 71801141 12880844_1288 49280863 1322629 72608755 72608754 1198004 1240866 41507478 41507496 41507495 41507490 1180898 1196303 87900959 87900958 1194962 1195009 41507503 41507502 41507499"/>
    </vehicle>
    <vehicle id="5.11" type="CarA_1.00" depart="22.00" departLane="best" departPos="base" departSpeed="random">
        <route edges="1316713 49280842 49280841 49280831 15488224 15488223 44459644 103278303 103278302 1183934 1176652 49370523 49370526 79218501 79218500 49370530 49370529 1183962 1183916 1178299 58200933 72649498 72649499 1194993 1196303 87900959 87900958 1194962 68206673-1 68206675-1"/>
    </vehicle>
    <vehicle id="2.1" type="CarB_1.65" depart="23.00" departLane="best" departPos="base" departSpeed="random">
        <route edges="36589233 36589234 1196306 1194997 41507488 41507489 41507483 41507493 41507494 41507480 1240869 1198001 41507470 41507471 41507453 41507468 41507469 1240877"/>
    </vehicle>
    <vehicle id="5.12" type="CarB_1.00" depart="23.00" departLane="best" departPos="base" departSpeed="random">
        <route edges="1316713 49280842 49280841 49280831 15488224 15488223 44459644 103278303 103278302 1183934 1176652 49370523 49370526 79218501 79218500 49370530 49370529 1183962 1183916 1178299 58200933 72649498 72649499 1194993 1180902 16350568 16350573 16350574 43842047 43842048 1194975"/>
    </vehicle>
    <vehicle id="3.2" type="CarB_1.65" depart="24.00" departLane="best" departPos="base" departSpeed="random">
        <route edges="44459654 44459653 41507565 41507564 79218442 41507575 44459649 44459648 49370513_4937 1183956 49370517 49370518 79218498 79218499 49370527 49370528 49370538_4937 79218447 79218446 103278351 15488228 18724100 18724099"/>
    </vehicle>
    <vehicle id="5.13" type="CarA_1.00" depart="24.00" departLane="best" departPos="base" departSpeed="random">
        <route edges="1316713 49280842 49280841 49280831 15488224 15488223 44459644 103278303 103278302 49370533_4937 1175112 1175100 15530560 15530561 71801128 71801129 49280825_4928 1319728 18724111 18724112 1307288"/>
    </vehicle>
    <vehicle id="8.8" type="CarB_1.00" depart="24.00" departLane="best" departPos="base" departSpeed="random">
        <route edges="75968140 75968139 97235605 75968147 67010994 67010993 39675385 97235601 62712769 67011034 67011033 62712764 72278905"/>
    </vehicle>
    <vehicle id="4.3" type="CarB_1.00" depart="25.00" departLane="best" departPos="base" departSpeed="random">
        <route edges="18724097 18724098 15488231 79218449 1196368 1175097 1175112 1175100 15530560 15530561 71801128 71801129 1319726 1307298 1307303 16350532 71801135 71801134 1307311 1307307 1307306 15488243 35686356 35686358 35686357 1175090 1175088 1240866 41507478 41507496 41507495 41507490 1180898 1196303 87900959 87900958 1194962 1195009 41507503 41507502 41507499"/>
    </vehicle>
    <vehicle id="7.3" type="CarB_1.65" depart="25.00" departLane="best" departPos="base" departSpeed="random">
        <route edges="18724132 67010770 67010769 67010800 67010802 67010801 12880833 102792918 102792917 15530591 35820694 102792897 102792896 61557863 61557862 12880848_1288 79325407 79325408 61557854 18724116 18724117 1299477 87950267 97235648_9723 67010991 67010992 75968145 97235606 75968141 75968142 67010874 67010875 102792910"/>
    </vehicle>
    <vehicle id="12.3" type="CarA_1.00" depart="26.00" departLane="best" departPos="base" departSpeed="random">
        <route edges="67010956 67010955 61557830 67010868 67010867 1299467 15530597 15530596 18724128 67010827 67010829 67010830 61557806"/>
    </vehicle>
    <vehicle id="5.14" type="CarB_1.00" depart="26.00" departLane="best" departPos="base" departSpeed="random">
        <route edges="1316713 49280842 49280841 49280831 15488224 15488223 44459644 103278303 103278302 1183934 1196364 79218447 79218446 103278351 15488228 18724100 18724099"/>
    </vehicle>
    <vehicle id="10.3" type="CarC_1.00" depart="27.00" departLane="best" departPos="base" departSpeed="random">
        <route edges="87950181 12880842 71801145 71801146 71801140 71801141 12880792 12880788 35820669 75968149 75968153 75968154 75968158 67011039 67011040 12880822 79325407 79325408 61557854 18724116 18724117 1299477 87950267 97235633 97235601 62712769 67011034 67011033 62712764 72278905"/>
    </vehicle>
    <vehicle id="1.6" type="CarA_1.65" depart="29.00" departLane="best" departPos="base" departSpeed="random">
        <route edges="1196333 16350582 16350585 16350587 16350586 1196297 1196295 72649503 72649502 58200931 48191749 48191748 49370512_4937 44459646 44459647 1178305 41507566 41507567 44459651 44459652"/>
    </vehicle>
    <vehicle id="11.1" type="CarA_1.00" depart="29.00" departLane="best" departPos="base" departSpeed="random">
        <route edges="1240882 41507451 41507455 41507459 41507473 41507472 1240868 1175083 72608756 72608757 71801138 71801139 49280856 12880795 67011088 67011087 71801144 71801150 71801149 87950185"/>
    </vehicle>
    <vehicle id="4.4" type="CarA_1.00" depart="29.00" departLane="best" departPos="base" departSpeed="random">
        <route edges="18724097 18724098 15488231 79218449 1196368 1175097 1175112 1175100 15530560 15530561 71801128 71801129 1319726 1307298 1307303 16350532 71801135 71801134 1307311 1307307 1307306 15488243 35686356 35686358 35686357 1175090 1175088 1240866 41507478 41507496 41507495 41507490 1180898 1196303 87900959 87900958 1194962 68206673-1 68206675-1"/>
    </vehicle>
    <vehicle id="5.15" type="CarA_1.70" depart="29.00" departLane="best" departPos="base" departSpeed="random">
        <route edges="1316713 49280842 49280841 49280831 15488224 15488223 44459644 103278303 103278302 1183934 1196364 79218447 79218446 103278351 15488228 18724100 18724099"/>
    </vehicle>
    <vehicle id="8.9" type="CarB_1.00" depart="29.00" departLane="best" departPos="base" departSpeed="random">
        <route edges="75968140 75968139 97235605 75968147 67010994 67010993 39675385 97235601 62712769 67011034 67011033 62712764 72278905"/>
    </vehicle>
    <vehicle id="6.2" type="CarA_2.20" depart="30.00" departLane="best" departPos="base" departSpeed="random">
        <route edges="71801131 71801130 1307293 87950198 15530564 15530563 1174933 1183939 1175109 1183929 103278300 103278301 15488190 15488191 49683815 49683816 49627397 44660403 44660404"/>
    </vehicle>
    <vehicle id="8.10" type="CarB_1.00" depart="30.00" departLane="best" departPos="base" departSpeed="random">
        <route edges="75968140 75968139 97235605 75968147 67010994 67010993 39675385 97235601 62712769 67011034 67011033 62712764 72278905"/>
    </vehicle>
    <vehicle id="5.16" type="CarB_1.00" depart="31.00" departLane="best" departPos="base" departSpeed="random">
        <route edges="1316713 49280842 49280841 49280831 15488224 15488223 44459644 103278303 103278302 49370533_4937 1175112 1175100 15530560 15530561 71801128 71801129 1319726 1307294 43842056 35820720 35820719 35820705 35820704 61557811 44660402 44660401 18724122 15530610 15530611 1319680 67010863 67010864 61557826 67010957 67010958 67010874 67010875 102792910"/>
    </vehicle>
    <vehicle id="8.11" type="CarA_1.65" depart="34.00" departLane="best" departPos="base" departSpeed="random">
        <route edges="75968140 75968139 97235605 75968147 67010994 67010993 39675385 97235601 62712769 67011034 67011033 62712764 72278905"/>
    </vehicle>
    <vehicle id="4.5" type="CarB_1.00" depart="35.00" departLane="best" departPos="base" departSpeed="random">
        <route edges="18724097 18724098 15488231 79218449 1196368 1175097 1175112 1175100 15530560 15530561 71801128 71801129 1319726 1307294 43842056 35820720 35820719 35820705 35820704 61557811 44660402 44660401 18724122 12880833 102792918 102792917 15530591 35820694 102792897 102792896 61557863 61557862 12880848_1288 79325407 79325408 61557854 18724116 18724117 1299477 87950267 97235648_9723 67010991 67010992 75968145 97235606 75968141 75968142 67010874 67010875 102792910"/>
    </vehicle>
    <vehicle id="8.12" type="CarA_1.00" depart="35.00" departLane="best" departPos="base" departSpeed="random">
        <route edges="75968140 75968139 97235605 75968147 67010994 67010993 39675385 97235645 97235644 18724118 1316463 1302730 61557852 61557859 61557858 87950271 61557875 61557876 87950266 75968172 71801137 1307309 1307316 16350557 16350558 71801126 71801127 1319727 1319728 18724111 18724112 1307288"/>
    </vehicle>
    <vehicle id="12.4" type="CarB_1.00" depart="36.00" departLane="best" departPos="base" departSpeed="random">
        <route edges="67010956 67010955 61557830 67010868 67010867 1299467 15530597 15530596 1319723 44660399 44660400 35820702 35820703 35820846 35820847 43842053 43842054 1307296 87950198 15530564 15530563 1174933 1183939 1175109 1183929 103278300 103278301 15488190 15488191 49683815 49683816 49627397 44660403 44660404"/>
    </vehicle>
    <vehicle id="5.17" type="CarB_1.00" depart="38.00" departLane="best" departPos="base" departSpeed="random">