<?xml version="1.0" encoding="UTF-8"?>

<!-- generated on 05/06/20 19:29:41 by Eclipse SUMO netedit Version 1.0.1
<configuration xmlns:xsi="http://www.w3.org/2001/XMLSchema-instance" xsi:noNamespaceSchemaLocation="http://sumo.dlr.de/xsd/netconvertConfiguration.xsd">

    <input>
        <sumo-net-file value="D:\ITS\code\py\sumo\data\shenzhen_3by3_loops_modified_12int_center.net.xml"/>
    </input>

    <output>
        <output-file value="D:\ITS\code\py\sumo\data\shenzhen_3by3_loops_modified_12int_center.net.xml"/>
    </output>

    <processing>
        <offset.disable-normalization value="true"/>
        <lefthand value="false"/>
    </processing>

    <junctions>
        <no-turnarounds value="true"/>
        <junctions.corner-detail value="5"/>
        <junctions.limit-turn-speed value="5.5"/>
        <rectangular-lane-cut value="false"/>
    </junctions>

    <pedestrian>
        <walkingareas value="false"/>
    </pedestrian>

</configuration>
-->

<net version="1.0" junctionCornerDetail="5" limitTurnSpeed="5.50" xmlns:xsi="http://www.w3.org/2001/XMLSchema-instance" xsi:noNamespaceSchemaLocation="http://sumo.dlr.de/xsd/net_file.xsd">

    <location netOffset="0.00,0.00" convBoundary="1449.65,839.86,3426.61,2876.21" origBoundary="0.00,0.00,5204.43,3768.16" projParameter="!"/>

    <edge id=":10000956243_0" function="internal">
        <lane id=":10000956243_0_0" index="0" speed="13.80" length="0.37" shape="2352.06,1034.31 2351.98,1034.40"/>
        <lane id=":10000956243_0_1" index="1" speed="13.80" length="0.37" shape="2349.84,1032.00 2349.59,1032.27"/>
        <lane id=":10000956243_0_2" index="2" speed="13.80" length="0.37" shape="2347.62,1029.70 2347.20,1030.14"/>
    </edge>
    <edge id=":10000956244_0" function="internal">
        <lane id=":10000956244_0_0" index="0" speed="13.80" length="0.53" shape="2347.01,1012.20 2347.05,1012.16 2347.08,1012.14 2347.10,1012.11 2347.14,1012.07"/>
        <lane id=":10000956244_0_1" index="1" speed="13.80" length="0.53" shape="2349.15,1014.58 2349.27,1014.47 2349.35,1014.40 2349.42,1014.32 2349.53,1014.20"/>
        <lane id=":10000956244_0_2" index="2" speed="13.80" length="0.53" shape="2351.29,1016.96 2351.49,1016.78 2351.62,1016.66 2351.74,1016.53 2351.92,1016.33"/>
    </edge>
    <edge id=":10000956247_0" function="internal">
        <lane id=":10000956247_0_0" index="0" speed="13.80" length="1.31" shape="2362.37,1647.61 2361.98,1647.56 2361.72,1647.51 2361.46,1647.43 2361.10,1647.29"/>
    </edge>
    <edge id=":10000956247_1" function="internal">
        <lane id=":10000956247_1_0" index="0" speed="13.80" length="0.44" shape="2362.31,1644.32 2362.43,1644.37 2362.51,1644.40 2362.60,1644.41 2362.73,1644.43"/>
    </edge>
    <edge id=":10000974954_0" function="internal">
        <lane id=":10000974954_0_0" index="0" speed="11.10" length="0.29" shape="2356.40,1398.13 2356.17,1397.99"/>
        <lane id=":10000974954_0_1" index="1" speed="11.10" length="0.29" shape="2358.01,1395.36 2357.74,1395.20"/>
    </edge>
    <edge id=":10000984698_0" function="internal">
        <lane id=":10000984698_0_0" index="0" speed="8.33" length="7.44" shape="2366.23,1921.23 2365.68,1918.89 2364.95,1917.04 2364.04,1915.67 2362.96,1914.78"/>
    </edge>
    <edge id=":10000984698_1" function="internal">
        <lane id=":10000984698_1_0" index="0" speed="11.10" length="7.91" shape="2369.91,1918.58 2362.96,1914.78"/>
        <lane id=":10000984698_1_1" index="1" speed="11.10" length="7.91" shape="2371.44,1915.77 2364.50,1911.98"/>
        <lane id=":10000984698_1_2" index="2" speed="11.10" length="7.91" shape="2372.97,1912.96 2366.04,1909.17"/>
    </edge>
    <edge id=":10000984699_0" function="internal">
        <lane id=":10000984699_0_0" index="0" speed="13.80" length="8.22" shape="2356.52,1891.24 2358.97,1891.95 2360.89,1891.66 2362.80,1891.39 2365.22,1892.14"/>
        <lane id=":10000984699_0_1" index="1" speed="13.80" length="8.22" shape="2356.52,1891.24 2363.65,1894.93"/>
        <lane id=":10000984699_0_2" index="2" speed="13.80" length="8.22" shape="2355.00,1894.05 2362.08,1897.72"/>
        <lane id=":10000984699_0_3" index="3" speed="13.80" length="8.22" shape="2353.47,1896.86 2360.50,1900.50"/>
    </edge>
    <edge id=":10000984702_0" function="internal">
        <lane id=":10000984702_0_0" index="0" speed="11.10" length="0.29" shape="2357.64,1387.47 2357.86,1387.61"/>
        <lane id=":10000984702_0_1" index="1" speed="11.10" length="0.29" shape="2355.96,1390.20 2356.22,1390.36"/>
    </edge>
    <edge id=":10965986_0" function="internal">
        <lane id=":10965986_0_0" index="0" speed="11.10" length="0.30" shape="2563.32,2647.23 2563.22,2647.51"/>
        <lane id=":10965986_0_1" index="1" speed="11.10" length="0.30" shape="2560.32,2646.11 2560.22,2646.39"/>
        <lane id=":10965986_0_2" index="2" speed="11.10" length="0.30" shape="2557.33,2644.99 2557.22,2645.27"/>
    </edge>
    <edge id=":10965987_0" function="internal">
        <lane id=":10965987_0_0" index="0" speed="7.69" length="7.42" shape="2602.44,2477.88 2604.64,2477.25 2606.37,2476.39 2607.62,2475.30 2608.40,2473.97"/>
    </edge>
    <edge id=":10965987_1" function="internal">
        <lane id=":10965987_1_0" index="0" speed="11.10" length="7.96" shape="2605.74,2481.59 2608.40,2473.97"/>
        <lane id=":10965987_1_1" index="1" speed="11.10" length="7.96" shape="2608.77,2482.61 2611.40,2475.09"/>
        <lane id=":10965987_1_2" index="2" speed="11.10" length="7.96" shape="2611.81,2483.62 2614.39,2476.21"/>
    </edge>
    <edge id=":10965990_0" function="internal">
        <lane id=":10965990_0_0" index="0" speed="11.10" length="9.29" shape="2586.54,2524.97 2587.70,2522.43 2588.61,2520.61 2588.95,2518.79 2588.43,2516.22"/>
    </edge>
    <edge id=":10965990_1" function="internal">
        <lane id=":10965990_1_0" index="0" speed="11.10" length="10.02" shape="2589.54,2526.09 2593.15,2516.62"/>
        <lane id=":10965990_1_1" index="1" speed="11.10" length="10.02" shape="2592.54,2527.21 2596.10,2517.85"/>
        <lane id=":10965990_1_2" index="2" speed="11.10" length="10.02" shape="2595.54,2528.33 2599.06,2519.07"/>
    </edge>
    <edge id=":10965995_0" function="internal">
        <lane id=":10965995_0_0" index="0" speed="11.10" length="7.84" shape="2646.21,2420.01 2645.85,2422.39 2645.95,2424.08 2645.98,2425.76 2645.43,2428.08"/>
        <lane id=":10965995_0_1" index="1" speed="11.10" length="7.84" shape="2646.21,2420.01 2645.39,2422.20 2644.44,2423.55 2643.43,2424.88 2642.41,2427.01"/>
        <lane id=":10965995_0_2" index="2" speed="11.10" length="7.84" shape="2643.11,2419.22 2642.31,2421.33 2641.38,2422.62 2640.38,2423.89 2639.40,2425.94"/>
        <lane id=":10965995_0_3" index="3" speed="11.10" length="7.84" shape="2640.00,2418.43 2639.23,2420.46 2638.31,2421.69 2637.34,2422.91 2636.38,2424.88"/>
    </edge>
    <edge id=":10965996_0" function="internal">
        <lane id=":10965996_0_0" index="0" speed="8.32" length="10.88" shape="2680.77,2138.26 2684.10,2140.53 2686.80,2142.09 2688.89,2142.96 2690.35,2143.12"/>
    </edge>
    <edge id=":10965996_1" function="internal">
        <lane id=":10965996_1_0" index="0" speed="11.10" length="11.56" shape="2678.90,2140.85 2688.38,2147.40"/>
        <lane id=":10965996_1_1" index="1" speed="11.10" length="11.56" shape="2677.03,2143.45 2686.53,2150.02"/>
        <lane id=":10965996_1_2" index="2" speed="11.10" length="11.56" shape="2675.16,2146.05 2684.68,2152.63"/>
        <lane id=":10965996_1_3" index="3" speed="11.10" length="11.56" shape="2673.29,2148.64 2682.83,2155.24"/>
    </edge>
    <edge id=":10965997_0" function="internal">
        <lane id=":10965997_0_0" index="0" speed="8.32" length="8.56" shape="2699.76,2141.56 2702.01,2140.96 2703.88,2139.96 2705.35,2138.57 2706.44,2136.79"/>
    </edge>
    <edge id=":10965997_1" function="internal">
        <lane id=":10965997_1_0" index="0" speed="11.10" length="9.25" shape="2702.79,2145.38 2706.44,2136.79"/>
        <lane id=":10965997_1_1" index="1" speed="11.10" length="9.25" shape="2705.74,2146.62 2709.35,2138.10"/>
        <lane id=":10965997_1_2" index="2" speed="11.10" length="9.25" shape="2708.69,2147.85 2712.27,2139.42"/>
    </edge>
    <edge id=":10965998_0" function="internal">
        <lane id=":10965998_0_0" index="0" speed="8.32" length="10.39" shape="2731.36,2143.71 2729.84,2147.14 2728.89,2149.93 2728.52,2152.07 2728.74,2153.57"/>
    </edge>
    <edge id=":10965998_1" function="internal">
        <lane id=":10965998_1_0" index="0" speed="11.10" length="10.67" shape="2728.48,2142.31 2723.63,2151.89"/>
        <lane id=":10965998_1_1" index="1" speed="11.10" length="10.67" shape="2725.60,2140.92 2720.77,2150.46"/>
        <lane id=":10965998_1_2" index="2" speed="11.10" length="10.67" shape="2722.72,2139.53 2717.91,2149.03"/>
        <lane id=":10965998_1_3" index="3" speed="11.10" length="10.67" shape="2719.84,2138.13 2715.05,2147.59"/>
    </edge>
    <edge id=":10965999_0" function="internal">
        <lane id=":10965999_0_0" index="0" speed="7.69" length="7.53" shape="2731.28,2159.46 2732.35,2161.53 2733.56,2163.07 2734.90,2164.09 2736.38,2164.58"/>
    </edge>
    <edge id=":10965999_1" function="internal">
        <lane id=":10965999_1_0" index="0" speed="11.10" length="8.20" shape="2728.25,2163.41 2736.38,2164.58"/>
        <lane id=":10965999_1_1" index="1" speed="11.10" length="8.20" shape="2727.80,2166.58 2735.91,2167.75"/>
        <lane id=":10965999_1_2" index="2" speed="11.10" length="8.20" shape="2727.34,2169.75 2735.45,2170.91"/>
    </edge>
    <edge id=":10966007_0" function="internal">
        <lane id=":10966007_0_0" index="0" speed="11.10" length="0.30" shape="2544.84,2642.13 2544.95,2641.87"/>
        <lane id=":10966007_0_1" index="1" speed="11.10" length="0.30" shape="2547.81,2643.32 2547.92,2643.04"/>
        <lane id=":10966007_0_2" index="2" speed="11.10" length="0.30" shape="2550.79,2644.50 2550.90,2644.21"/>
    </edge>
    <edge id=":10966008_0" function="internal">
        <lane id=":10966008_0_0" index="0" speed="11.10" length="0.30" shape="2935.90,1865.78 2935.71,1866.02"/>
        <lane id=":10966008_0_1" index="1" speed="11.10" length="0.30" shape="2933.40,1863.78 2933.22,1864.02"/>
        <lane id=":10966008_0_2" index="2" speed="11.10" length="0.30" shape="2930.91,1861.78 2930.72,1862.01"/>
    </edge>
    <edge id=":10966009_0" function="internal">
        <lane id=":10966009_0_0" index="0" speed="11.10" length="0.55" shape="2917.43,1851.56 2917.89,1850.97"/>
        <lane id=":10966009_0_1" index="1" speed="11.10" length="0.55" shape="2919.98,1853.49 2920.38,1852.98"/>
        <lane id=":10966009_0_2" index="2" speed="11.10" length="0.55" shape="2922.53,1855.42 2922.87,1854.98"/>
        <lane id=":10966009_0_3" index="3" speed="11.10" length="0.55" shape="2925.09,1857.35 2925.37,1856.99"/>
        <lane id=":10966009_0_4" index="4" speed="11.10" length="0.55" shape="2927.64,1859.28 2927.86,1858.99"/>
    </edge>
    <edge id=":10966013_0" function="internal">
        <lane id=":10966013_0_0" index="0" speed="11.10" length="10.51" shape="2955.90,1803.67 2957.74,1801.17 2958.69,1799.22 2959.19,1797.10 2959.66,1794.08"/>
    </edge>
    <edge id=":10966013_1" function="internal">
        <lane id=":10966013_1_0" index="0" speed="11.10" length="11.07" shape="2958.39,1805.68 2960.30,1802.97 2961.36,1800.94 2962.44,1798.92 2964.41,1796.27"/>
        <lane id=":10966013_1_1" index="1" speed="11.10" length="11.07" shape="2960.89,1807.68 2962.78,1804.99 2963.83,1802.98 2964.90,1800.98 2966.85,1798.34"/>
        <lane id=":10966013_1_2" index="2" speed="11.10" length="11.07" shape="2963.38,1809.69 2965.26,1807.02 2966.29,1805.01 2967.35,1803.03 2969.29,1800.41"/>
        <lane id=":10966013_1_3" index="3" speed="11.10" length="11.07" shape="2965.88,1811.69 2967.74,1809.04 2968.76,1807.05 2969.81,1805.08 2971.73,1802.49"/>
    </edge>
    <edge id=":10966016_0" function="internal">
        <lane id=":10966016_0_0" index="0" speed="11.10" length="0.27" shape="2475.36,2817.55 2475.43,2817.36"/>
        <lane id=":10966016_0_1" index="1" speed="11.10" length="0.27" shape="2478.33,2818.74 2478.43,2818.48"/>
        <lane id=":10966016_0_2" index="2" speed="11.10" length="0.27" shape="2481.30,2819.93 2481.42,2819.60"/>
    </edge>
    <edge id=":12637815_0" function="internal">
        <lane id=":12637815_0_0" index="0" speed="11.10" length="0.41" shape="2391.81,1406.65 2391.97,1406.74 2392.08,1406.80 2392.19,1406.87 2392.34,1406.97"/>
        <lane id=":12637815_0_1" index="1" speed="11.10" length="0.41" shape="2390.35,1409.50 2390.40,1409.53 2390.44,1409.55 2390.47,1409.57 2390.52,1409.61"/>
    </edge>
    <edge id=":12637816_0" function="internal">
        <lane id=":12637816_0_0" index="0" speed="11.10" length="0.24" shape="2386.57,1416.34 2386.32,1416.19"/>
        <lane id=":12637816_0_1" index="1" speed="11.10" length="0.24" shape="2388.20,1413.58 2388.03,1413.48"/>
    </edge>
    <edge id=":12637818_0" function="internal">
        <lane id=":12637818_0_0" index="0" speed="11.10" length="0.29" shape="2820.86,1971.69 2821.01,1971.50"/>
        <lane id=":12637818_0_1" index="1" speed="11.10" length="0.29" shape="2823.31,1973.75 2823.49,1973.53"/>
        <lane id=":12637818_0_2" index="2" speed="11.10" length="0.29" shape="2825.76,1975.81 2825.97,1975.55"/>
    </edge>
    <edge id=":12637820_0" function="internal">
        <lane id=":12637820_0_0" index="0" speed="11.10" length="0.27" shape="2805.84,1655.01 2805.66,1654.88"/>
        <lane id=":12637820_0_1" index="1" speed="11.10" length="0.27" shape="2807.68,1652.38 2807.42,1652.21"/>
    </edge>
    <edge id=":12637827_0" function="internal">
        <lane id=":12637827_0_0" index="0" speed="11.10" length="0.25" shape="2881.99,1709.97 2881.71,1709.74"/>
        <lane id=":12637827_0_1" index="1" speed="11.10" length="0.25" shape="2883.92,1707.42 2883.83,1707.34"/>
    </edge>
    <edge id=":12637828_0" function="internal">
        <lane id=":12637828_0_0" index="0" speed="11.10" length="0.29" shape="2838.56,1985.20 2838.36,1985.46"/>
        <lane id=":12637828_0_1" index="1" speed="11.10" length="0.29" shape="2836.03,1983.25 2835.85,1983.47"/>
        <lane id=":12637828_0_2" index="2" speed="11.10" length="0.29" shape="2833.49,1981.29 2833.34,1981.48"/>
    </edge>
    <edge id=":12637829_0" function="internal">
        <lane id=":12637829_0_0" index="0" speed="11.10" length="0.29" shape="2887.62,1700.49 2887.87,1700.67"/>
        <lane id=":12637829_0_1" index="1" speed="11.10" length="0.29" shape="2885.80,1703.12 2886.03,1703.28"/>
    </edge>
    <edge id=":12637830_0" function="internal">
        <lane id=":12637830_0_0" index="0" speed="11.10" length="0.26" shape="2811.43,1645.50 2811.68,1645.67"/>
        <lane id=":12637830_0_1" index="1" speed="11.10" length="0.26" shape="2809.61,1648.13 2809.79,1648.26"/>
    </edge>
    <edge id=":12637831_0" function="internal">
        <lane id=":12637831_0_0" index="0" speed="11.10" length="0.30" shape="3065.03,1862.54 3064.79,1862.34"/>
        <lane id=":12637831_0_1" index="1" speed="11.10" length="0.30" shape="3067.10,1860.09 3066.88,1859.91"/>
    </edge>
    <edge id=":12637838_0" function="internal">
        <lane id=":12637838_0_0" index="0" speed="11.10" length="3.00" shape="3069.69,1852.43 3072.00,1854.35"/>
        <lane id=":12637838_0_1" index="1" speed="11.10" length="3.00" shape="3067.65,1854.90 3069.96,1856.81"/>
    </edge>
    <edge id=":12735751_0" function="internal">
        <lane id=":12735751_0_0" index="0" speed="13.80" length="8.20" shape="2296.33,1072.92 2297.64,1070.91 2298.21,1069.32 2298.77,1067.73 2300.06,1065.70"/>
        <lane id=":12735751_0_1" index="1" speed="13.80" length="8.20" shape="2296.33,1072.92 2298.03,1071.21 2299.46,1070.31 2300.89,1069.41 2302.57,1067.69"/>
        <lane id=":12735751_0_2" index="2" speed="13.80" length="8.20" shape="2298.82,1074.93 2300.52,1073.22 2301.96,1072.31 2303.39,1071.40 2305.08,1069.67"/>
    </edge>
    <edge id=":12735768_0" function="internal">
        <lane id=":12735768_0_0" index="0" speed="13.80" length="0.29" shape="2312.09,1080.28 2311.93,1080.47"/>
        <lane id=":12735768_0_1" index="1" speed="13.80" length="0.29" shape="2309.59,1078.28 2309.41,1078.50"/>
        <lane id=":12735768_0_2" index="2" speed="13.80" length="0.29" shape="2307.09,1076.28 2306.89,1076.54"/>
    </edge>
    <edge id=":12735773_0" function="internal">
        <lane id=":12735773_0_0" index="0" speed="11.10" length="0.28" shape="2066.17,1259.22 2065.96,1259.14"/>
        <lane id=":12735773_0_1" index="1" speed="11.10" length="0.28" shape="2067.36,1256.25 2067.10,1256.15"/>
        <lane id=":12735773_0_2" index="2" speed="11.10" length="0.28" shape="2068.55,1253.28 2068.24,1253.16"/>
    </edge>
    <edge id=":12735774_0" function="internal">
        <lane id=":12735774_0_0" index="0" speed="11.10" length="8.16" shape="2130.40,1266.26 2132.86,1266.72 2134.67,1266.39 2136.47,1266.06 2138.91,1266.56"/>
        <lane id=":12735774_0_1" index="1" speed="11.10" length="8.16" shape="2130.40,1266.26 2137.74,1269.54"/>
        <lane id=":12735774_0_2" index="2" speed="11.10" length="8.16" shape="2129.27,1269.25 2136.56,1272.51"/>
        <lane id=":12735774_0_3" index="3" speed="11.10" length="8.16" shape="2128.14,1272.24 2135.39,1275.49"/>
    </edge>
    <edge id=":12735779_0" function="internal">
        <lane id=":12735779_0_0" index="0" speed="11.10" length="0.30" shape="2334.45,2036.23 2334.31,2036.50"/>
        <lane id=":12735779_0_1" index="1" speed="11.10" length="0.30" shape="2331.59,2034.79 2331.46,2035.05"/>
    </edge>
    <edge id=":12735780_0" function="internal">
        <lane id=":12735780_0_0" index="0" speed="11.10" length="0.29" shape="2323.15,2030.76 2323.27,2030.53"/>
        <lane id=":12735780_0_1" index="1" speed="11.10" length="0.29" shape="2326.00,2032.23 2326.14,2031.95"/>
    </edge>
    <edge id=":13193291_0" function="internal">
        <lane id=":13193291_0_0" index="0" speed="11.10" length="0.28" shape="2493.00,1738.20 2492.86,1738.47"/>
        <lane id=":13193291_0_1" index="1" speed="11.10" length="0.28" shape="2490.17,1736.71 2490.05,1736.94"/>
    </edge>
    <edge id=":13193304_0" function="internal">
        <lane id=":13193304_0_0" index="0" speed="11.10" length="0.30" shape="2480.66,1731.63 2480.79,1731.37"/>
        <lane id=":13193304_0_1" index="1" speed="11.10" length="0.30" shape="2483.50,1733.10 2483.64,1732.82"/>
    </edge>
    <edge id=":13193306_0" function="internal">
        <lane id=":13193306_0_0" index="0" speed="13.80" length="8.18" shape="1819.77,2426.11 1818.62,2428.20 1817.50,2429.45 1816.40,2430.71 1815.30,2432.82"/>
        <lane id=":13193306_0_1" index="1" speed="13.80" length="8.18" shape="1816.82,2424.86 1815.66,2426.97 1814.54,2428.24 1813.43,2429.52 1812.33,2431.65"/>
        <lane id=":13193306_0_2" index="2" speed="13.80" length="8.18" shape="1813.87,2423.62 1813.17,2425.93 1813.06,2427.62 1812.97,2429.32 1812.33,2431.65"/>
    </edge>
    <edge id=":13193310_0" function="internal">
        <lane id=":13193310_0_0" index="0" speed="13.80" length="0.30" shape="1881.00,2275.36 1880.92,2275.55"/>
        <lane id=":13193310_0_1" index="1" speed="13.80" length="0.30" shape="1878.04,2274.15 1877.93,2274.43"/>
        <lane id=":13193310_0_2" index="2" speed="13.80" length="0.30" shape="1875.07,2272.95 1874.93,2273.31"/>
    </edge>
    <edge id=":13193312_0" function="internal">
        <lane id=":13193312_0_0" index="0" speed="13.80" length="0.30" shape="1846.74,2361.40 1846.62,2361.70"/>
        <lane id=":13193312_0_1" index="1" speed="13.80" length="0.30" shape="1843.78,2360.20 1843.66,2360.48"/>
        <lane id=":13193312_0_2" index="2" speed="13.80" length="0.30" shape="1840.81,2359.01 1840.71,2359.26"/>
    </edge>
    <edge id=":13193317_0" function="internal">
        <lane id=":13193317_0_0" index="0" speed="13.80" length="0.25" shape="1813.19,2401.47 1813.32,2401.18"/>
        <lane id=":13193317_0_1" index="1" speed="13.80" length="0.25" shape="1816.18,2402.64 1816.24,2402.47"/>
    </edge>
    <edge id=":13193318_0" function="internal">
        <lane id=":13193318_0_0" index="0" speed="13.80" length="0.30" shape="1831.81,2355.66 1831.92,2355.39"/>
        <lane id=":13193318_0_1" index="1" speed="13.80" length="0.30" shape="1834.78,2356.85 1834.89,2356.57"/>
    </edge>
    <edge id=":13193319_0" function="internal">
        <lane id=":13193319_0_0" index="0" speed="13.80" length="8.40" shape="1863.58,2274.39 1863.95,2271.90 1863.45,2270.07 1862.95,2268.25 1863.34,2265.76"/>
        <lane id=":13193319_0_1" index="1" speed="13.80" length="8.40" shape="1863.58,2274.39 1866.34,2266.87"/>
        <lane id=":13193319_0_2" index="2" speed="13.80" length="8.40" shape="1866.58,2275.49 1869.34,2267.99"/>
        <lane id=":13193319_0_3" index="3" speed="13.80" length="8.40" shape="1866.58,2275.49 1867.89,2273.35 1869.45,2272.29 1871.02,2271.23 1872.34,2269.10"/>
    </edge>
    <edge id=":13193320_0" function="internal">
        <lane id=":13193320_0_0" index="0" speed="13.80" length="0.29" shape="1968.15,2186.67 1968.41,2186.75"/>
        <lane id=":13193320_0_1" index="1" speed="13.80" length="0.29" shape="1967.13,2189.70 1967.43,2189.80"/>
    </edge>
    <edge id=":14431356_0" function="internal">
        <lane id=":14431356_0_0" index="0" speed="11.10" length="3.25" shape="2013.14,1237.87 2013.71,1234.67"/>
    </edge>
    <edge id=":14431356_1" function="internal">
        <lane id=":14431356_1_0" index="0" speed="4.35" length="3.76" shape="2014.16,1234.83 2012.72,1233.01 2012.50,1231.58"/>
    </edge>
    <edge id=":14431356_4" function="internal">
        <lane id=":14431356_4_0" index="0" speed="4.35" length="3.76" shape="2012.50,1231.58 2013.51,1230.56 2015.75,1229.93"/>
    </edge>
    <edge id=":14431356_2" function="internal">
        <lane id=":14431356_2_0" index="0" speed="11.10" length="0.27" shape="2016.55,1226.82 2016.77,1226.89"/>
        <lane id=":14431356_2_1" index="1" speed="11.10" length="0.27" shape="2015.46,1229.83 2015.75,1229.93"/>
    </edge>
    <edge id=":14431364_0" function="internal">
        <lane id=":14431364_0_0" index="0" speed="11.10" length="0.16" shape="2673.49,1345.27 2673.58,1345.07"/>
        <lane id=":14431364_0_1" index="1" speed="11.10" length="0.16" shape="2676.41,1346.55 2676.44,1346.50"/>
    </edge>
    <edge id=":14431365_0" function="internal">
        <lane id=":14431365_0_0" index="0" speed="11.10" length="0.24" shape="2686.81,1350.72 2686.68,1350.99"/>
        <lane id=":14431365_0_1" index="1" speed="11.10" length="0.24" shape="2683.93,1349.32 2683.85,1349.49"/>
    </edge>
    <edge id=":14431366_0" function="internal">
        <lane id=":14431366_0_0" index="0" speed="11.10" length="0.29" shape="2897.10,2186.48 2897.42,2186.54"/>
        <lane id=":14431366_0_1" index="1" speed="11.10" length="0.29" shape="2896.55,2189.63 2896.83,2189.69"/>
        <lane id=":14431366_0_2" index="2" speed="11.10" length="0.29" shape="2895.99,2192.79 2896.24,2192.83"/>
    </edge>
    <edge id=":14431367_0" function="internal">
        <lane id=":14431367_0_0" index="0" speed="11.10" length="0.33" shape="3034.98,2229.62 3034.76,2229.57"/>
        <lane id=":14431367_0_1" index="1" speed="11.10" length="0.33" shape="3035.71,2226.51 3035.39,2226.44"/>
        <lane id=":14431367_0_2" index="2" speed="11.10" length="0.33" shape="3036.44,2223.39 3036.02,2223.30"/>
    </edge>
    <edge id=":14431371_0" function="internal">
        <lane id=":14431371_0_0" index="0" speed="11.10" length="8.21" shape="3055.27,1524.98 3055.51,1527.37 3056.05,1528.97 3056.60,1530.58 3056.84,1532.97"/>
        <lane id=":14431371_0_1" index="1" speed="11.10" length="8.21" shape="3055.27,1524.98 3055.01,1527.37 3054.45,1528.97 3053.90,1530.57 3053.64,1532.96"/>
        <lane id=":14431371_0_2" index="2" speed="11.10" length="8.21" shape="3052.07,1524.96 3051.81,1527.36 3051.25,1528.96 3050.70,1530.56 3050.44,1532.96"/>
        <lane id=":14431371_0_3" index="3" speed="11.10" length="8.21" shape="3048.87,1524.94 3048.61,1527.34 3048.05,1528.95 3047.50,1530.55 3047.24,1532.95"/>
    </edge>
    <edge id=":14431373_0" function="internal">
        <lane id=":14431373_0_0" index="0" speed="7.09" length="5.13" shape="2985.99,1763.07 2987.32,1762.78 2988.48,1762.26 2989.46,1761.51 2990.26,1760.53"/>
    </edge>
    <edge id=":14431373_1" function="internal">
        <lane id=":14431373_1_0" index="0" speed="11.10" length="6.14" shape="2988.65,1766.83 2989.66,1765.30 2990.68,1764.48 2991.75,1763.70 2992.95,1762.27"/>
        <lane id=":14431373_1_1" index="1" speed="11.10" length="6.14" shape="2991.52,1768.24 2992.49,1766.81 2993.46,1766.06 2994.49,1765.35 2995.63,1764.01"/>
    </edge>
    <edge id=":20000956231_0" function="internal">
        <lane id=":20000956231_0_0" index="0" speed="11.10" length="0.28" shape="2378.37,2376.63 2378.45,2376.67"/>
        <lane id=":20000956231_0_1" index="1" speed="11.10" length="0.28" shape="2376.81,2379.42 2377.05,2379.55"/>
        <lane id=":20000956231_0_2" index="2" speed="11.10" length="0.28" shape="2375.25,2382.22 2375.66,2382.43"/>
    </edge>
    <edge id=":20000956236_0" function="internal">
        <lane id=":20000956236_0_0" index="0" speed="11.10" length="0.29" shape="2365.24,1943.81 2365.40,1943.51"/>
        <lane id=":20000956236_0_1" index="1" speed="11.10" length="0.29" shape="2368.09,1945.27 2368.23,1945.01"/>
        <lane id=":20000956236_0_2" index="2" speed="11.10" length="0.29" shape="2370.95,1946.72 2371.05,1946.51"/>
    </edge>
    <edge id=":20000974937_0" function="internal">
        <lane id=":20000974937_0_0" index="0" speed="11.10" length="0.28" shape="2375.90,2396.81 2375.60,2396.65"/>
        <lane id=":20000974937_0_1" index="1" speed="11.10" length="0.28" shape="2377.34,2393.95 2377.10,2393.83"/>
        <lane id=":20000974937_0_2" index="2" speed="11.10" length="0.28" shape="2378.78,2391.09 2378.60,2391.00"/>
    </edge>
    <edge id=":20000994215_0" function="internal">
        <lane id=":20000994215_0_0" index="0" speed="11.10" length="0.28" shape="2370.04,1965.71 2369.93,1965.93"/>
        <lane id=":20000994215_0_1" index="1" speed="11.10" length="0.28" shape="2367.21,1964.21 2367.07,1964.48"/>
    </edge>
    <edge id=":21695462_0" function="internal">
        <lane id=":21695462_0_0" index="0" speed="13.80" length="0.30" shape="1977.43,1952.11 1977.53,1951.81"/>
        <lane id=":21695462_0_1" index="1" speed="13.80" length="0.30" shape="1980.46,1953.12 1980.56,1952.84"/>
        <lane id=":21695462_0_2" index="2" speed="13.80" length="0.30" shape="1983.50,1954.14 1983.59,1953.86"/>
    </edge>
    <edge id=":21695464_0" function="internal">
        <lane id=":21695464_0_0" index="0" speed="13.80" length="8.21" shape="1996.21,1954.40 1995.69,1956.75 1995.70,1958.45 1995.72,1960.14 1995.19,1962.50"/>
        <lane id=":21695464_0_1" index="1" speed="13.80" length="8.21" shape="1996.21,1954.40 1995.22,1956.59 1994.19,1957.94 1993.16,1959.29 1992.16,1961.48"/>
        <lane id=":21695464_0_2" index="2" speed="13.80" length="8.21" shape="1993.18,1953.39 1992.18,1955.58 1991.15,1956.93 1990.12,1958.27 1989.12,1960.47"/>
        <lane id=":21695464_0_3" index="3" speed="13.80" length="8.21" shape="1990.14,1952.37 1989.14,1954.57 1988.12,1955.91 1987.09,1957.26 1986.09,1959.45"/>
    </edge>
    <edge id=":23042502_0" function="internal">
        <lane id=":23042502_0_0" index="0" speed="11.10" length="8.21" shape="3114.36,2222.58 3112.72,2224.35 3111.88,2225.82 3111.05,2227.29 3109.42,2229.07"/>
        <lane id=":23042502_0_1" index="1" speed="11.10" length="8.21" shape="3114.36,2222.58 3112.39,2223.98 3110.83,2224.62 3109.26,2225.27 3107.30,2226.67"/>
        <lane id=":23042502_0_2" index="2" speed="11.10" length="8.21" shape="3112.25,2220.18 3110.28,2221.58 3108.71,2222.22 3107.15,2222.87 3105.18,2224.27"/>
        <lane id=":23042502_0_3" index="3" speed="11.10" length="8.21" shape="3110.13,2217.78 3108.17,2219.17 3106.60,2219.82 3105.03,2220.47 3103.07,2221.87"/>
    </edge>
    <edge id=":25130482_0" function="internal">
        <lane id=":25130482_0_0" index="0" speed="11.10" length="8.28" shape="2155.41,1786.78 2153.05,1785.81 2151.16,1785.76 2149.29,1785.69 2146.97,1784.66"/>
        <lane id=":25130482_0_1" index="1" speed="11.10" length="8.28" shape="2155.41,1786.78 2148.77,1782.01"/>
        <lane id=":25130482_0_2" index="2" speed="11.10" length="8.28" shape="2157.13,1784.08 2150.57,1779.36"/>
        <lane id=":25130482_0_3" index="3" speed="11.10" length="8.28" shape="2158.86,1781.39 2152.36,1776.71"/>
    </edge>
    <edge id=":25130482_4" function="internal">
        <lane id=":25130482_4_0" index="0" speed="13.80" length="7.80" shape="2157.94,1768.49 2164.35,1772.77"/>
        <lane id=":25130482_4_1" index="1" speed="13.80" length="7.80" shape="2156.15,1771.14 2162.63,1775.47"/>
        <lane id=":25130482_4_2" index="2" speed="13.80" length="7.80" shape="2154.35,1773.79 2160.91,1778.17"/>
    </edge>
    <edge id=":25130492_0" function="internal">
        <lane id=":25130492_0_0" index="0" speed="11.10" length="0.30" shape="2120.88,2560.18 2120.79,2560.47"/>
        <lane id=":25130492_0_1" index="1" speed="11.10" length="0.30" shape="2117.84,2559.19 2117.74,2559.48"/>
    </edge>
    <edge id=":25130493_0" function="internal">
        <lane id=":25130493_0_0" index="0" speed="11.10" length="0.25" shape="2151.88,2465.32 2151.79,2465.60"/>
        <lane id=":25130493_0_1" index="1" speed="11.10" length="0.25" shape="2148.81,2464.42 2148.75,2464.61"/>
    </edge>
    <edge id=":25130494_0" function="internal">
        <lane id=":25130494_0_0" index="0" speed="11.10" length="0.30" shape="2107.39,2556.37 2107.48,2556.09"/>